1
    SWAT Dec 23 2016    VER 2016/Rev 664                                                                 0/ 0/   0      0: 0: 0

    General Input/Output section (file.cio):                                        
     Friday, January 3, 2020 12:55:29 PM VGESWAT 2012.622                           
                                                                                    


       SUB      GIS  MON   AREAkm2  PRECIPmm SNOMELTmm     PETmm      ETmm      SWmm    PERCmm    SURQmm    GW_Qmm    WYLDmm  SYLDt/ha ORGNkg/ha ORGPkg/haNSURQkg/ha SOLPkg/ha SEDPkg/ha LAT Q(mm)LATNO3kg/hGWNO3kg/haCHOLAmic/LCBODU mg/L DOXQ mg/L TNO3kg/ha   QTILEmm TVAPkg/ha
BIGSUB   1        0    1.33076E+03     9.300     5.175    14.279     3.672    49.845     0.000     0.730     0.000     0.730     8.751     9.503     0.673     0.312     0.000     0.986     0.000     0.000     0.000 .00000E+00 0.000E+00 0.000E+00 0.000E+00 0.000E+00 0.000E+00
BIGSUB   2        0    1.23373E+03     9.300     5.175    14.243     3.636    47.304     0.000     0.495     0.000     0.495     5.152     7.389     0.535     0.198     0.000     0.634     0.000     0.000     0.000 .00000E+00 0.000E+00 0.000E+00 0.000E+00 0.000E+00 0.000E+00
BIGSUB   3        0    1.19996E+03     9.300     5.175    14.422     3.650    44.872     0.000     0.274     0.000     0.274     1.648     4.218     0.350     0.092     0.000     0.293     0.000     0.000     0.000 .00000E+00 0.000E+00 0.000E+00 0.000E+00 0.000E+00 0.000E+00
BIGSUB   4        0    1.10370E+03     9.300     5.175    14.078     3.625    49.892     0.000     0.731     0.000     0.731    14.333    15.389     0.996     0.311     0.000     1.459     0.000     0.000     0.000 .00000E+00 0.000E+00 0.000E+00 0.000E+00 0.000E+00 0.000E+00
BIGSUB   5        0    1.23231E+03     9.300     5.175    14.454     3.711    49.806     0.000     0.730     0.000     0.730     9.175     9.848     0.692     0.312     0.000     1.014     0.000     0.000     0.000 .00000E+00 0.000E+00 0.000E+00 0.000E+00 0.000E+00 0.000E+00
BIGSUB   6        0    1.40306E+03     9.300     5.175    14.482     3.663    44.859     0.000     0.274     0.000     0.274     1.802     4.554     0.368     0.092     0.000     0.308     0.000     0.000     0.000 .00000E+00 0.000E+00 0.000E+00 0.000E+00 0.000E+00 0.000E+00
BIGSUB   7        0    1.11014E+03     9.300     5.175    14.502     3.721    49.796     0.000     0.730     0.000     0.730     7.073     7.619     0.568     0.313     0.000     0.832     0.000     0.000     0.000 .00000E+00 0.000E+00 0.000E+00 0.000E+00 0.000E+00 0.000E+00
BIGSUB   8        0    1.18780E+03     9.300     5.175    14.654     3.701    44.821     0.000     0.274     0.000     0.274     2.089     5.263     0.417     0.092     0.000     0.349     0.000     0.000     0.000 .00000E+00 0.000E+00 0.000E+00 0.000E+00 0.000E+00 0.000E+00
BIGSUB   9        0    1.37141E+03     9.300     5.175    14.820     3.794    49.724     0.000     0.730     0.000     0.730    10.612    11.944     0.822     0.313     0.000     1.205     0.000     0.000     0.000 .00000E+00 0.000E+00 0.000E+00 0.000E+00 0.000E+00 0.000E+00
BIGSUB  10        0    1.43575E+03     9.300     5.175    14.223     3.603    44.918     0.000     0.274     0.000     0.274     2.062     5.336     0.421     0.092     0.000     0.352     0.000     0.000     0.000 .00000E+00 0.000E+00 0.000E+00 0.000E+00 0.000E+00 0.000E+00
BIGSUB  11        0    1.39979E+03     9.300     5.175    14.362     3.689    49.829     0.000     0.730     0.000     0.730    11.954    13.313     0.893     0.312     0.000     1.308     0.000     0.000     0.000 .00000E+00 0.000E+00 0.000E+00 0.000E+00 0.000E+00 0.000E+00
BIGSUB  12        0    1.11311E+03     9.300     5.175    14.804     3.790    49.728     0.000     0.730     0.000     0.730     7.983     8.568     0.624     0.313     0.000     0.915     0.000     0.000     0.000 .00000E+00 0.000E+00 0.000E+00 0.000E+00 0.000E+00 0.000E+00
BIGSUB  13        0    1.24150E+03     9.300     5.175    14.534     3.673    44.848     0.000     0.274     0.000     0.274     2.163     5.461     0.427     0.092     0.000     0.357     0.000     0.000     0.000 .00000E+00 0.000E+00 0.000E+00 0.000E+00 0.000E+00 0.000E+00
BIGSUB  14        0    1.59396E+03     9.300     5.175    15.096     3.892    68.743     0.000     0.370     0.000     0.370     5.764     6.956     0.475     0.155     0.000     0.646     0.000     0.000     0.000 .00000E+00 0.000E+00 0.000E+00 0.000E+00 0.000E+00 0.000E+00
BIGSUB  15        0    1.93955E+02     9.300     5.175    14.805     3.790    49.728     0.000     0.730     0.000     0.730    12.256    13.166     0.885     0.313     0.000     1.297     0.000     0.000     0.000 .00000E+00 0.000E+00 0.000E+00 0.000E+00 0.000E+00 0.000E+00
BIGSUB  16        0    1.38883E+03     9.300     5.175    14.138     3.584    44.938     0.000     0.274     0.000     0.274     2.339     6.044     0.462     0.092     0.000     0.386     0.000     0.000     0.000 .00000E+00 0.000E+00 0.000E+00 0.000E+00 0.000E+00 0.000E+00
BIGSUB  17        0    1.19092E+03     9.300     5.175    14.507     3.666    44.855     0.000     0.274     0.000     0.274     3.630     9.083     0.630     0.092     0.000     0.528     0.000     0.000     0.000 .00000E+00 0.000E+00 0.000E+00 0.000E+00 0.000E+00 0.000E+00
BIGSUB  18        0    1.26371E+03     9.300     5.175    14.103     3.575    44.946     0.000     0.274     0.000     0.274     3.442     8.627     0.604     0.092     0.000     0.506     0.000     0.000     0.000 .00000E+00 0.000E+00 0.000E+00 0.000E+00 0.000E+00 0.000E+00
BIGSUB  19        0    1.14902E+03     9.300     5.175    14.173     3.591    44.931     0.000     0.274     0.000     0.274     3.650     9.127     0.630     0.092     0.000     0.527     0.000     0.000     0.000 .00000E+00 0.000E+00 0.000E+00 0.000E+00 0.000E+00 0.000E+00
BIGSUB  20        0    1.17588E+03     9.300     5.175    15.009     3.835    49.684     0.000     0.729     0.000     0.729    11.633    12.567     0.854     0.314     0.000     1.252     0.000     0.000     0.000 .00000E+00 0.000E+00 0.000E+00 0.000E+00 0.000E+00 0.000E+00
BIGSUB  21        0    1.38890E+03     9.300     5.175    15.000     3.832    49.686     0.000     0.729     0.000     0.729    12.611    13.776     0.916     0.314     0.000     1.342     0.000     0.000     0.000 .00000E+00 0.000E+00 0.000E+00 0.000E+00 0.000E+00 0.000E+00
BIGSUB  22        0    1.21793E+03     9.300     5.175    14.387     3.639    44.883     0.000     0.274     0.000     0.274     5.003    12.582     0.827     0.092     0.000     0.693     0.000     0.000     0.000 .00000E+00 0.000E+00 0.000E+00 0.000E+00 0.000E+00 0.000E+00
BIGSUB  23        0    1.11865E+03     9.300     5.175    15.125     3.925    82.935     0.000     0.103     0.000     0.103     1.479     2.778     0.194     0.036     0.000     0.186     0.000     0.000     0.000 .00000E+00 0.000E+00 0.000E+00 0.000E+00 0.000E+00 0.000E+00
BIGSUB  24        0    1.22973E+03     9.300     5.175    15.049     3.887    72.260     0.000     0.304     0.000     0.304     5.737     6.953     0.457     0.125     0.000     0.604     0.000     0.000     0.000 .00000E+00 0.000E+00 0.000E+00 0.000E+00 0.000E+00 0.000E+00
BIGSUB  25        0    1.10848E+03     9.300     5.175    15.002     3.832    49.686     0.000     0.729     0.000     0.729    13.220    14.175     0.935     0.314     0.000     1.371     0.000     0.000     0.000 .00000E+00 0.000E+00 0.000E+00 0.000E+00 0.000E+00 0.000E+00
BIGSUB  26        0    1.11554E+03     9.300     5.175    14.850     3.742    44.780     0.000     0.273     0.000     0.273     3.903     9.869     0.689     0.092     0.000     0.577     0.000     0.000     0.000 .00000E+00 0.000E+00 0.000E+00 0.000E+00 0.000E+00 0.000E+00
BIGSUB  27        0    1.96617E+02     9.300     5.175    15.005     3.776    44.746     0.000     0.273     0.000     0.273     4.672    11.685     0.782     0.092     0.000     0.655     0.000     0.000     0.000 .00000E+00 0.000E+00 0.000E+00 0.000E+00 0.000E+00 0.000E+00
BIGSUB  28        0    1.98636E+02     9.300     5.175    15.411     3.989    82.871     0.000     0.103     0.000     0.103     1.966     3.687     0.240     0.036     0.000     0.231     0.000     0.000     0.000 .00000E+00 0.000E+00 0.000E+00 0.000E+00 0.000E+00 0.000E+00
BIGSUB  29        0    1.21971E+03     9.300     5.175    14.895     3.752    44.770     0.000     0.273     0.000     0.273     5.007    12.589     0.828     0.092     0.000     0.693     0.000     0.000     0.000 .00000E+00 0.000E+00 0.000E+00 0.000E+00 0.000E+00 0.000E+00
BIGSUB  30        0    1.30952E+03     9.300     5.175    14.771     3.725    44.797     0.000     0.273     0.000     0.273     4.435    11.193     0.757     0.092     0.000     0.634     0.000     0.000     0.000 .00000E+00 0.000E+00 0.000E+00 0.000E+00 0.000E+00 0.000E+00
BIGSUB  31        0    1.89857E+02     9.300     5.175    15.177     3.871    49.647     0.000     0.729     0.000     0.729    13.995    15.006     0.976     0.315     0.000     1.431     0.000     0.000     0.000 .00000E+00 0.000E+00 0.000E+00 0.000E+00 0.000E+00 0.000E+00
BIGSUB  32        0    1.17953E+03     9.300     5.175    14.703     3.828    83.032     0.000     0.103     0.000     0.103     1.852     3.491     0.231     0.036     0.000     0.222     0.000     0.000     0.000 .00000E+00 0.000E+00 0.000E+00 0.000E+00 0.000E+00 0.000E+00
BIGSUB  33        0    1.93678E+02     9.300     5.175    14.849     3.861    82.999     0.000     0.103     0.000     0.103     2.011     3.770     0.244     0.036     0.000     0.235     0.000     0.000     0.000 .00000E+00 0.000E+00 0.000E+00 0.000E+00 0.000E+00 0.000E+00
BIGSUB  34        0    1.96744E+02     9.300     5.175    14.936     3.880    82.979     0.000     0.103     0.000     0.103     1.843     3.457     0.229     0.036     0.000     0.220     0.000     0.000     0.000 .00000E+00 0.000E+00 0.000E+00 0.000E+00 0.000E+00 0.000E+00
BIGSUB  35        0    1.23249E+03     9.300     5.175    15.761     4.068    82.792     0.000     0.103     0.000     0.103     1.809     3.408     0.226     0.036     0.000     0.217     0.000     0.000     0.000 .00000E+00 0.000E+00 0.000E+00 0.000E+00 0.000E+00 0.000E+00
BIGSUB  36        0    1.31830E+03     9.300     5.175    14.627     3.750    49.767     0.000     0.730     0.000     0.730     8.721     9.356     0.652     0.313     0.000     0.956     0.000     0.000     0.000 .00000E+00 0.000E+00 0.000E+00 0.000E+00 0.000E+00 0.000E+00
BIGSUB  37        0    1.57013E+02     9.300     5.175    15.587     4.029    82.831     0.000     0.103     0.000     0.103     1.825     3.423     0.227     0.036     0.000     0.218     0.000     0.000     0.000 .00000E+00 0.000E+00 0.000E+00 0.000E+00 0.000E+00 0.000E+00
BIGSUB  38        0    1.19539E+03     9.300     5.175    14.913     3.757    44.765     0.000     0.273     0.000     0.273     5.323    13.323     0.864     0.092     0.000     0.723     0.000     0.000     0.000 .00000E+00 0.000E+00 0.000E+00 0.000E+00 0.000E+00 0.000E+00
BIGSUB  39        0    1.15918E+03     9.300     5.175    14.704     3.731    46.458     0.000     0.426     0.000     0.426     4.972     7.329     0.542     0.166     0.000     0.622     0.000     0.000     0.000 .00000E+00 0.000E+00 0.000E+00 0.000E+00 0.000E+00 0.000E+00
BIGSUB  40        0    1.17147E+03     9.300     5.175    15.115     3.802    44.720     0.000     0.273     0.000     0.273     4.944    12.399     0.818     0.092     0.000     0.685     0.000     0.000     0.000 .00000E+00 0.000E+00 0.000E+00 0.000E+00 0.000E+00 0.000E+00
BIGSUB  41        0    1.18064E+03     9.300     5.175    14.727     3.773    49.744     0.000     0.730     0.000     0.730    11.085    12.006     0.826     0.313     0.000     1.210     0.000     0.000     0.000 .00000E+00 0.000E+00 0.000E+00 0.000E+00 0.000E+00 0.000E+00
BIGSUB  42        0    1.93102E+01     9.300     5.175    16.246     4.072   126.383     0.000     0.128     0.000     0.128     2.239     1.599     0.101     0.047     0.000     0.201     0.000     0.000     0.000 .00000E+00 0.000E+00 0.000E+00 0.000E+00 0.000E+00 0.000E+00
BIGSUB  43        0    1.33275E+03     9.300     5.175    15.700     4.054    82.806     0.000     0.103     0.000     0.103     2.020     3.799     0.246     0.036     0.000     0.236     0.000     0.000     0.000 .00000E+00 0.000E+00 0.000E+00 0.000E+00 0.000E+00 0.000E+00
BIGSUB  44        0    1.12614E+03     9.300     5.175    14.808     3.735    44.786     0.000     0.273     0.000     0.273     2.174     5.449     0.424     0.092     0.000     0.355     0.000     0.000     0.000 .00000E+00 0.000E+00 0.000E+00 0.000E+00 0.000E+00 0.000E+00
BIGSUB  45        0    1.21710E+03     9.300     5.175    14.914     3.815    49.703     0.000     0.730     0.000     0.730     8.930     9.718     0.686     0.314     0.000     1.006     0.000     0.000     0.000 .00000E+00 0.000E+00 0.000E+00 0.000E+00 0.000E+00 0.000E+00
BIGSUB  46        0    1.16302E+01     9.300     5.175    16.307     4.064    44.459     0.000     0.272     0.000     0.272     5.128    12.820     0.838     0.092     0.000     0.702     0.000     0.000     0.000 .00000E+00 0.000E+00 0.000E+00 0.000E+00 0.000E+00 0.000E+00
BIGSUB  47        0    1.62083E+02     9.300     5.175    15.446     3.998    82.862     0.000     0.103     0.000     0.103     1.527     2.865     0.199     0.036     0.000     0.191     0.000     0.000     0.000 .00000E+00 0.000E+00 0.000E+00 0.000E+00 0.000E+00 0.000E+00
BIGSUB  48        0    1.13295E+03     9.300     5.175    15.172     3.873    49.645     0.000     0.729     0.000     0.729     6.685     7.422     0.557     0.314     0.000     0.816     0.000     0.000     0.000 .00000E+00 0.000E+00 0.000E+00 0.000E+00 0.000E+00 0.000E+00
BIGSUB  49        0    1.53468E+01     9.300     5.175    16.262     4.181    82.680     0.000     0.103     0.000     0.103     1.095     2.053     0.154     0.036     0.000     0.148     0.000     0.000     0.000 .00000E+00 0.000E+00 0.000E+00 0.000E+00 0.000E+00 0.000E+00
BIGSUB  50        0    1.25690E+03     9.300     5.175    15.566     4.025    82.835     0.000     0.103     0.000     0.103     1.677     3.160     0.214     0.036     0.000     0.205     0.000     0.000     0.000 .00000E+00 0.000E+00 0.000E+00 0.000E+00 0.000E+00 0.000E+00
BIGSUB  51        0    1.23941E+03     9.300     5.175    14.599     3.688    44.834     0.000     0.274     0.000     0.274     3.326     8.774     0.631     0.092     0.000     0.528     0.000     0.000     0.000 .00000E+00 0.000E+00 0.000E+00 0.000E+00 0.000E+00 0.000E+00
BIGSUB  52        0    1.16015E+03     9.300     5.175    15.071     3.849    49.669     0.000     0.729     0.000     0.729    13.294    14.281     0.941     0.314     0.000     1.379     0.000     0.000     0.000 .00000E+00 0.000E+00 0.000E+00 0.000E+00 0.000E+00 0.000E+00
BIGSUB  53        0    1.62233E+02     9.300     5.175    15.116     3.860    49.658     0.000     0.729     0.000     0.729    11.506    12.342     0.843     0.314     0.000     1.235     0.000     0.000     0.000 .00000E+00 0.000E+00 0.000E+00 0.000E+00 0.000E+00 0.000E+00
BIGSUB  54        0    1.39093E+03     9.300     5.175    15.251     3.889    49.629     0.000     0.729     0.000     0.729    14.419    15.803     1.015     0.315     0.000     1.488     0.000     0.000     0.000 .00000E+00 0.000E+00 0.000E+00 0.000E+00 0.000E+00 0.000E+00
BIGSUB  55        0    1.94321E+02     9.300     5.175    15.117     3.924    82.936     0.000     0.103     0.000     0.103     1.595     2.993     0.205     0.036     0.000     0.197     0.000     0.000     0.000 .00000E+00 0.000E+00 0.000E+00 0.000E+00 0.000E+00 0.000E+00
BIGSUB  56        0    1.92100E+02     9.300     5.175    15.194     3.877    49.642     0.000     0.729     0.000     0.729    15.149    16.256     1.037     0.314     0.000     1.520     0.000     0.000     0.000 .00000E+00 0.000E+00 0.000E+00 0.000E+00 0.000E+00 0.000E+00
BIGSUB  57        0    1.28379E+03     9.300     5.175    15.387     3.985    82.875     0.000     0.103     0.000     0.103     1.575     2.990     0.205     0.036     0.000     0.197     0.000     0.000     0.000 .00000E+00 0.000E+00 0.000E+00 0.000E+00 0.000E+00 0.000E+00
BIGSUB  58        0    1.12635E+03     9.300     5.175    15.018     3.837    49.681     0.000     0.729     0.000     0.729    16.450    17.667     1.104     0.314     0.000     1.618     0.000     0.000     0.000 .00000E+00 0.000E+00 0.000E+00 0.000E+00 0.000E+00 0.000E+00
BIGSUB  59        0    1.45554E+03     9.300     5.175    15.458     3.935    49.584     0.000     0.729     0.000     0.729    17.405    19.052     1.169     0.315     0.000     1.713     0.000     0.000     0.000 .00000E+00 0.000E+00 0.000E+00 0.000E+00 0.000E+00 0.000E+00
BIGSUB  60        0    1.21268E+02     9.300     5.175    16.366     4.204    82.656     0.000     0.103     0.000     0.103     1.562     2.929     0.202     0.036     0.000     0.194     0.000     0.000     0.000 .00000E+00 0.000E+00 0.000E+00 0.000E+00 0.000E+00 0.000E+00
BIGSUB  61        0    1.43515E+02     9.300     5.175    15.661     4.047    82.813     0.000     0.103     0.000     0.103     1.487     2.789     0.195     0.036     0.000     0.187     0.000     0.000     0.000 .00000E+00 0.000E+00 0.000E+00 0.000E+00 0.000E+00 0.000E+00
BIGSUB  62        0    1.65740E+02     9.300     5.175    15.980     4.118    82.742     0.000     0.103     0.000     0.103     1.752     3.285     0.220     0.036     0.000     0.211     0.000     0.000     0.000 .00000E+00 0.000E+00 0.000E+00 0.000E+00 0.000E+00 0.000E+00
BIGSUB  63        0    1.46618E+02     9.300     5.175    16.296     4.188    82.672     0.000     0.103     0.000     0.103     1.868     3.503     0.231     0.036     0.000     0.222     0.000     0.000     0.000 .00000E+00 0.000E+00 0.000E+00 0.000E+00 0.000E+00 0.000E+00
BIGSUB  64        0    1.31590E+03     9.300     5.175    15.756     3.989   126.466     0.000     0.128     0.000     0.128     3.191     2.344     0.142     0.047     0.000     0.283     0.000     0.000     0.000 .00000E+00 0.000E+00 0.000E+00 0.000E+00 0.000E+00 0.000E+00
BIGSUB  65        0    1.38183E+02     9.300     5.175    16.301     4.189    82.671     0.000     0.103     0.000     0.103     1.768     3.314     0.221     0.036     0.000     0.213     0.000     0.000     0.000 .00000E+00 0.000E+00 0.000E+00 0.000E+00 0.000E+00 0.000E+00
BIGSUB  66        0    1.71296E+02     9.300     5.175    16.091     4.142    82.718     0.000     0.103     0.000     0.103     1.636     3.072     0.209     0.036     0.000     0.201     0.000     0.000     0.000 .00000E+00 0.000E+00 0.000E+00 0.000E+00 0.000E+00 0.000E+00
BIGSUB  67        0    1.26423E+03     9.300     5.175    15.977     4.027   126.428     0.000     0.128     0.000     0.128     3.262     2.351     0.142     0.047     0.000     0.284     0.000     0.000     0.000 .00000E+00 0.000E+00 0.000E+00 0.000E+00 0.000E+00 0.000E+00
BIGSUB  68        0    1.42857E+02     9.300     5.175    16.538     4.122   126.334     0.000     0.128     0.000     0.128     2.849     2.035     0.128     0.047     0.000     0.254     0.000     0.000     0.000 .00000E+00 0.000E+00 0.000E+00 0.000E+00 0.000E+00 0.000E+00
BIGSUB  69        0    1.37039E+02     9.300     5.175    16.721     4.152   126.303     0.000     0.127     0.000     0.127     2.571     1.836     0.118     0.047     0.000     0.235     0.000     0.000     0.000 .00000E+00 0.000E+00 0.000E+00 0.000E+00 0.000E+00 0.000E+00
BIGSUB   1        0    2.33076E+03    32.500    36.325    39.369    22.288    52.989     0.000    11.193     0.000    11.193   134.263    78.462     7.497     0.832     0.002    11.088     0.000     0.000     0.000 .00000E+00 0.000E+00 0.000E+00 0.000E+00 0.000E+00 0.000E+00
BIGSUB   2        0    2.23373E+03    32.500    36.325    39.352    23.373    53.042     0.000     7.297     0.000     7.418    78.254    83.294     6.807     0.618     0.002     7.786     0.121     0.008     0.000 .00000E+00 0.000E+00 0.000E+00 0.000E+00 0.000E+00 0.000E+00
BIGSUB   3        0    2.19996E+03    32.500    36.325    39.474    24.409    53.080     0.000     3.636     0.000     3.843    27.556    66.215     5.289     0.420     0.001     4.433     0.207     0.014     0.000 .00000E+00 0.000E+00 0.000E+00 0.000E+00 0.000E+00 0.000E+00
BIGSUB   4        0    2.10370E+03    32.500    36.325    39.254    22.299    53.015     0.000    11.202     0.000    11.202   215.051    96.039     9.896     0.828     0.002    14.667     0.000     0.000     0.000 .00000E+00 0.000E+00 0.000E+00 0.000E+00 0.000E+00 0.000E+00
BIGSUB   5        0    2.23231E+03    32.500    36.325    39.500    22.292    52.955     0.000    11.184     0.000    11.184   137.221    79.184     7.553     0.836     0.002    11.172     0.000     0.000     0.000 .00000E+00 0.000E+00 0.000E+00 0.000E+00 0.000E+00 0.000E+00
BIGSUB   6        0    2.40306E+03    32.500    36.325    39.532    24.426    53.070     0.000     3.635     0.000     3.832    30.114    70.865     5.535     0.421     0.001     4.639     0.197     0.013     0.000 .00000E+00 0.000E+00 0.000E+00 0.000E+00 0.000E+00 0.000E+00
BIGSUB   7        0    2.11014E+03    32.500    36.325    39.551    22.299    52.940     0.000    11.182     0.000    11.182   106.984    71.125     6.608     0.837     0.002     9.762     0.000     0.000     0.000 .00000E+00 0.000E+00 0.000E+00 0.000E+00 0.000E+00 0.000E+00
BIGSUB   8        0    2.18780E+03    32.500    36.325    39.652    24.449    52.966     0.000     3.630     0.000     3.854    34.878    81.713     6.252     0.424     0.001     5.240     0.223     0.015     0.000 .00000E+00 0.000E+00 0.000E+00 0.000E+00 0.000E+00 0.000E+00
BIGSUB   9        0    2.37141E+03    32.500    36.325    39.775    22.300    52.884     0.000    11.166     0.000    11.166   168.144    95.793     9.094     0.844     0.002    13.459     0.000     0.000     0.000 .00000E+00 0.000E+00 0.000E+00 0.000E+00 0.000E+00 0.000E+00
BIGSUB  10        0    2.43575E+03    32.500    36.325    39.379    24.407    53.076     0.000     3.642     0.000     3.875    34.539    82.682     6.316     0.417     0.001     5.294     0.234     0.016     0.000 .00000E+00 0.000E+00 0.000E+00 0.000E+00 0.000E+00 0.000E+00
BIGSUB  11        0    2.39979E+03    32.500    36.325    39.479    22.309    52.956     0.000    11.188     0.000    11.188   188.195    96.925     9.515     0.834     0.002    14.091     0.000     0.000     0.000 .00000E+00 0.000E+00 0.000E+00 0.000E+00 0.000E+00 0.000E+00
BIGSUB  12        0    2.11311E+03    32.500    36.325    39.756    22.297    52.889     0.000    11.167     0.000    11.167   119.211    76.054     7.073     0.844     0.002    10.453     0.000     0.000     0.000 .00000E+00 0.000E+00 0.000E+00 0.000E+00 0.000E+00 0.000E+00
BIGSUB  13        0    2.24150E+03    32.500    36.325    39.594    24.447    52.987     0.000     3.633     0.000     3.860    36.141    84.395     6.394     0.422     0.001     5.359     0.227     0.015     0.000 .00000E+00 0.000E+00 0.000E+00 0.000E+00 0.000E+00 0.000E+00
BIGSUB  14        0    2.59396E+03    32.500    36.325    39.982    22.932    74.437     0.000     7.999     0.000     7.999   126.647   110.489     9.474     0.565     0.002    11.203     0.000     0.000     0.000 .00000E+00 0.000E+00 0.000E+00 0.000E+00 0.000E+00 0.000E+00
BIGSUB  15        0    2.93955E+02    32.500    36.325    39.776    22.304    52.882     0.000    11.167     0.000    11.167   183.941    96.361     9.270     0.844     0.002    13.723     0.000     0.000     0.000 .00000E+00 0.000E+00 0.000E+00 0.000E+00 0.000E+00 0.000E+00
BIGSUB  16        0    2.38883E+03    32.500    36.325    39.345    24.409    53.056     0.000     3.644     0.000     3.897    39.194    92.757     6.902     0.416     0.001     5.786     0.253     0.017     0.000 .00000E+00 0.000E+00 0.000E+00 0.000E+00 0.000E+00 0.000E+00
BIGSUB  17        0    2.19092E+03    32.500    36.325    39.597    24.454    52.862     0.000     3.634     0.000     3.930    60.607   134.715     9.250     0.422     0.001     7.756     0.295     0.020     0.000 .00000E+00 0.000E+00 0.000E+00 0.000E+00 0.000E+00 0.000E+00
BIGSUB  18        0    2.26371E+03    32.500    36.325    39.340    24.415    52.992     0.000     3.645     0.000     3.934    57.578   128.397     8.891     0.416     0.001     7.455     0.290     0.020     0.000 .00000E+00 0.000E+00 0.000E+00 0.000E+00 0.000E+00 0.000E+00
BIGSUB  19        0    2.14902E+03    32.500    36.325    39.382    24.420    52.958     0.000     3.643     0.000     3.941    61.031   135.218     9.244     0.417     0.001     7.751     0.298     0.020     0.000 .00000E+00 0.000E+00 0.000E+00 0.000E+00 0.000E+00 0.000E+00
BIGSUB  20        0    2.17588E+03    32.500    36.325    39.931    22.310    52.841     0.000    11.157     0.000    11.157   176.952    95.897     9.135     0.849     0.002    13.521     0.000     0.000     0.000 .00000E+00 0.000E+00 0.000E+00 0.000E+00 0.000E+00 0.000E+00
BIGSUB  21        0    2.38890E+03    32.500    36.325    39.939    22.316    52.838     0.000    11.157     0.000    11.157   194.774    96.894     9.571     0.848     0.002    14.175     0.000     0.000     0.000 .00000E+00 0.000E+00 0.000E+00 0.000E+00 0.000E+00 0.000E+00
BIGSUB  22        0    2.21793E+03    32.500    36.325    39.539    24.452    52.730     0.000     3.637     0.000     4.021    83.628   182.247    12.019     0.420     0.001    10.080     0.384     0.026     0.000 .00000E+00 0.000E+00 0.000E+00 0.000E+00 0.000E+00 0.000E+00
BIGSUB  23        0    2.11865E+03    32.500    36.325    40.019    23.407    90.502     0.000     5.650     0.000     5.650    95.079   126.657     9.971     0.354     0.001     9.620     0.000     0.000     0.000 .00000E+00 0.000E+00 0.000E+00 0.000E+00 0.000E+00 0.000E+00
BIGSUB  24        0    2.22973E+03    32.500    36.325    39.978    23.057    78.406     0.000     7.421     0.000     7.421   133.359   116.454     9.922     0.513     0.002    11.214     0.000     0.000     0.000 .00000E+00 0.000E+00 0.000E+00 0.000E+00 0.000E+00 0.000E+00
BIGSUB  25        0    2.10848E+03    32.500    36.325    39.951    22.320    52.834     0.000    11.157     0.000    11.157   196.324    96.864     9.522     0.849     0.002    14.102     0.000     0.000     0.000 .00000E+00 0.000E+00 0.000E+00 0.000E+00 0.000E+00 0.000E+00
BIGSUB  26        0    2.11554E+03    32.500    36.325    39.858    24.511    52.649     0.000     3.625     0.000     3.970    65.142   147.176    10.125     0.427     0.001     8.489     0.345     0.023     0.000 .00000E+00 0.000E+00 0.000E+00 0.000E+00 0.000E+00 0.000E+00
BIGSUB  27        0    2.96617E+02    32.500    36.325    39.962    24.531    52.587     0.000     3.621     0.000     3.974    77.867   171.396    11.396     0.429     0.001     9.557     0.352     0.024     0.000 .00000E+00 0.000E+00 0.000E+00 0.000E+00 0.000E+00 0.000E+00
BIGSUB  28        0    2.98636E+02    32.500    36.325    40.224    23.432    90.423     0.000     5.640     0.000     5.640   124.086   145.957    11.649     0.356     0.001    11.247     0.000     0.000     0.000 .00000E+00 0.000E+00 0.000E+00 0.000E+00 0.000E+00 0.000E+00
BIGSUB  29        0    2.21971E+03    32.500    36.325    39.894    24.520    52.581     0.000     3.624     0.000     3.998    83.528   182.057    11.998     0.428     0.001    10.062     0.373     0.025     0.000 .00000E+00 0.000E+00 0.000E+00 0.000E+00 0.000E+00 0.000E+00
BIGSUB  30        0    2.30952E+03    32.500    36.325    39.810    24.505    52.672     0.000     3.627     0.000     3.972    74.036   164.438    11.061     0.426     0.001     9.275     0.345     0.023     0.000 .00000E+00 0.000E+00 0.000E+00 0.000E+00 0.000E+00 0.000E+00
BIGSUB  31        0    2.89857E+02    32.500    36.325    40.068    22.319    52.804     0.000    11.149     0.000    11.149   207.667    96.422     9.744     0.852     0.002    14.437     0.000     0.000     0.000 .00000E+00 0.000E+00 0.000E+00 0.000E+00 0.000E+00 0.000E+00
BIGSUB  32        0    2.17953E+03    32.500    36.325    39.778    23.401    90.591     0.000     5.665     0.000     5.665   120.807   144.253    11.524     0.350     0.001    11.126     0.000     0.000     0.000 .00000E+00 0.000E+00 0.000E+00 0.000E+00 0.000E+00 0.000E+00
BIGSUB  33        0    2.93678E+02    32.500    36.325    39.878    23.412    90.553     0.000     5.660     0.000     5.660   127.372   147.588    11.832     0.352     0.001    11.425     0.000     0.000     0.000 .00000E+00 0.000E+00 0.000E+00 0.000E+00 0.000E+00 0.000E+00
BIGSUB  34        0    2.96744E+02    32.500    36.325    39.939    23.418    90.530     0.000     5.656     0.000     5.656   116.828   141.894    11.259     0.352     0.001    10.869     0.000     0.000     0.000 .00000E+00 0.000E+00 0.000E+00 0.000E+00 0.000E+00 0.000E+00
BIGSUB  35        0    2.23249E+03    32.500    36.325    40.472    23.462    90.329     0.000     5.627     0.000     5.627   117.509   142.360    11.322     0.359     0.001    10.930     0.000     0.000     0.000 .00000E+00 0.000E+00 0.000E+00 0.000E+00 0.000E+00 0.000E+00
BIGSUB  36        0    2.31830E+03    32.500    36.325    39.620    22.292    52.925     0.000    11.176     0.000    11.176   130.123    70.640     7.009     0.840     0.002    10.369     0.000     0.000     0.000 .00000E+00 0.000E+00 0.000E+00 0.000E+00 0.000E+00 0.000E+00
BIGSUB  37        0    2.57013E+02    32.500    36.325    40.346    23.446    90.376     0.000     5.634     0.000     5.634   114.777   140.726    11.133     0.357     0.001    10.746     0.000     0.000     0.000 .00000E+00 0.000E+00 0.000E+00 0.000E+00 0.000E+00 0.000E+00
BIGSUB  38        0    2.19539E+03    32.500    36.325    39.879    24.508    52.586     0.000     3.624     0.000     3.999    88.734   186.676    12.482     0.428     0.001    10.469     0.375     0.025     0.000 .00000E+00 0.000E+00 0.000E+00 0.000E+00 0.000E+00 0.000E+00
BIGSUB  39        0    2.15918E+03    32.500    36.325    39.678    23.731    52.939     0.000     6.147     0.000     6.296    76.357    85.420     7.023     0.564     0.001     7.740     0.149     0.010     0.000 .00000E+00 0.000E+00 0.000E+00 0.000E+00 0.000E+00 0.000E+00
BIGSUB  40        0    2.17147E+03    32.500    36.325    40.018    24.534    52.536     0.000     3.619     0.000     3.985    82.375   179.766    11.862     0.431     0.001     9.949     0.366     0.025     0.000 .00000E+00 0.000E+00 0.000E+00 0.000E+00 0.000E+00 0.000E+00
BIGSUB  41        0    2.18064E+03    32.500    36.325    39.688    22.291    52.908     0.000    11.171     0.000    11.171   169.439    95.196     8.970     0.842     0.002    13.273     0.000     0.000     0.000 .00000E+00 0.000E+00 0.000E+00 0.000E+00 0.000E+00 0.000E+00
BIGSUB  42        0    2.93102E+01    32.500    36.325    40.754    20.606   136.544     0.000     5.858     0.000     5.858   113.107    51.755     4.030     0.286     0.001     8.091     0.000     0.000     0.000 .00000E+00 0.000E+00 0.000E+00 0.000E+00 0.000E+00 0.000E+00
BIGSUB  43        0    2.33275E+03    32.500    36.325    40.424    23.454    90.347     0.000     5.629     0.000     5.629   130.651   149.068    12.018     0.358     0.001    11.606     0.000     0.000     0.000 .00000E+00 0.000E+00 0.000E+00 0.000E+00 0.000E+00 0.000E+00
BIGSUB  44        0    2.12614E+03    32.500    36.325    39.766    24.473    52.912     0.000     3.626     0.000     3.850    36.251    84.128     6.343     0.426     0.001     5.316     0.223     0.015     0.000 .00000E+00 0.000E+00 0.000E+00 0.000E+00 0.000E+00 0.000E+00
BIGSUB  45        0    2.21710E+03    32.500    36.325    39.837    22.299    52.868     0.000    11.162     0.000    11.162   137.198    80.456     7.643     0.846     0.002    11.304     0.000     0.000     0.000 .00000E+00 0.000E+00 0.000E+00 0.000E+00 0.000E+00 0.000E+00
BIGSUB  46        0    2.16302E+01    32.500    36.325    40.788    24.665    52.008     0.000     3.589     0.000     4.047    85.067   186.124    12.113     0.451     0.001    10.158     0.459     0.031     0.000 .00000E+00 0.000E+00 0.000E+00 0.000E+00 0.000E+00 0.000E+00
BIGSUB  47        0    2.62083E+02    32.500    36.325    40.230    23.426    90.422     0.000     5.639     0.000     5.639    96.863   128.086    10.069     0.356     0.001     9.715     0.000     0.000     0.000 .00000E+00 0.000E+00 0.000E+00 0.000E+00 0.000E+00 0.000E+00
BIGSUB  48        0    2.13295E+03    32.500    36.325    39.992    22.290    52.831     0.000    11.150     0.000    11.150   104.619    71.592     6.638     0.852     0.002     9.807     0.000     0.000     0.000 .00000E+00 0.000E+00 0.000E+00 0.000E+00 0.000E+00 0.000E+00
BIGSUB  49        0    2.53468E+01    32.500    36.325    40.764    23.474    90.221     0.000     5.610     0.000     5.610    67.443   100.385     8.010     0.363     0.001     7.723     0.000     0.000     0.000 .00000E+00 0.000E+00 0.000E+00 0.000E+00 0.000E+00 0.000E+00
BIGSUB  50        0    2.25690E+03    32.500    36.325    40.314    23.436    90.390     0.000     5.634     0.000     5.634   109.032   137.105    10.842     0.357     0.001    10.465     0.000     0.000     0.000 .00000E+00 0.000E+00 0.000E+00 0.000E+00 0.000E+00 0.000E+00
BIGSUB  51        0    2.23941E+03    32.500    36.325    39.644    24.457    52.758     0.000     3.632     0.000     3.973    55.697   132.287     9.333     0.423     0.001     7.825     0.341     0.023     0.000 .00000E+00 0.000E+00 0.000E+00 0.000E+00 0.000E+00 0.000E+00
BIGSUB  52        0    2.16015E+03    32.500    36.325    39.955    22.303    52.837     0.000    11.154     0.000    11.154   199.394    96.877     9.593     0.850     0.002    14.210     0.000     0.000     0.000 .00000E+00 0.000E+00 0.000E+00 0.000E+00 0.000E+00 0.000E+00
BIGSUB  53        0    2.62233E+02    32.500    36.325    39.970    22.296    52.835     0.000    11.152     0.000    11.152   171.215    95.243     8.966     0.851     0.002    13.267     0.000     0.000     0.000 .00000E+00 0.000E+00 0.000E+00 0.000E+00 0.000E+00 0.000E+00
BIGSUB  54        0    2.39093E+03    32.500    36.325    40.081    22.304    52.805     0.000    11.145     0.000    11.145   223.329    95.625    10.118     0.854     0.002    15.002     0.000     0.000     0.000 .00000E+00 0.000E+00 0.000E+00 0.000E+00 0.000E+00 0.000E+00
BIGSUB  55        0    2.94321E+02    32.500    36.325    39.990    23.395    90.515     0.000     5.651     0.000     5.651   101.739   131.804    10.379     0.353     0.001    10.016     0.000     0.000     0.000 .00000E+00 0.000E+00 0.000E+00 0.000E+00 0.000E+00 0.000E+00
BIGSUB  56        0    2.92100E+02    32.500    36.325    40.032    22.300    52.818     0.000    11.148     0.000    11.148   226.014    95.173    10.077     0.853     0.002    14.940     0.000     0.000     0.000 .00000E+00 0.000E+00 0.000E+00 0.000E+00 0.000E+00 0.000E+00
BIGSUB  57        0    2.28379E+03    32.500    36.325    40.176    23.415    90.443     0.000     5.641     0.000     5.641   103.778   133.971    10.583     0.356     0.001    10.213     0.000     0.000     0.000 .00000E+00 0.000E+00 0.000E+00 0.000E+00 0.000E+00 0.000E+00
BIGSUB  58        0    2.12635E+03    32.500    36.325    39.928    22.307    52.843     0.000    11.157     0.000    11.157   246.535    93.761    10.405     0.849     0.002    15.438     0.000     0.000     0.000 .00000E+00 0.000E+00 0.000E+00 0.000E+00 0.000E+00 0.000E+00
BIGSUB  59        0    2.45554E+03    32.500    36.325    40.232    22.308    52.765     0.000    11.135     0.000    11.135   269.090    92.376    10.778     0.859     0.002    16.007     0.000     0.000     0.000 .00000E+00 0.000E+00 0.000E+00 0.000E+00 0.000E+00 0.000E+00
BIGSUB  60        0    2.21268E+02    32.500    36.325    40.825    23.476    90.198     0.000     5.607     0.000     5.607    98.188   129.173    10.138     0.363     0.001     9.782     0.000     0.000     0.000 .00000E+00 0.000E+00 0.000E+00 0.000E+00 0.000E+00 0.000E+00
BIGSUB  61        0    2.43515E+02    32.500    36.325    40.369    23.438    90.370     0.000     5.631     0.000     5.631    93.789   125.635     9.869     0.358     0.001     9.521     0.000     0.000     0.000 .00000E+00 0.000E+00 0.000E+00 0.000E+00 0.000E+00 0.000E+00
BIGSUB  62        0    2.65740E+02    32.500    36.325    40.582    23.458    90.289     0.000     5.620     0.000     5.620   110.292   137.854    10.872     0.360     0.001    10.493     0.000     0.000     0.000 .00000E+00 0.000E+00 0.000E+00 0.000E+00 0.000E+00 0.000E+00
BIGSUB  63        0    2.46618E+02    32.500    36.325    40.792    23.479    90.210     0.000     5.609     0.000     5.609   117.059   142.117    11.251     0.363     0.001    10.861     0.000     0.000     0.000 .00000E+00 0.000E+00 0.000E+00 0.000E+00 0.000E+00 0.000E+00
BIGSUB  64        0    2.31590E+03    32.500    36.325    40.449    20.575   136.649     0.000     5.867     0.000     5.867   174.694    73.684     5.835     0.285     0.001    11.723     0.000     0.000     0.000 .00000E+00 0.000E+00 0.000E+00 0.000E+00 0.000E+00 0.000E+00
BIGSUB  65        0    2.38183E+02    32.500    36.325    40.800    23.481    90.206     0.000     5.609     0.000     5.609   110.982   138.327    10.907     0.363     0.001    10.527     0.000     0.000     0.000 .00000E+00 0.000E+00 0.000E+00 0.000E+00 0.000E+00 0.000E+00
BIGSUB  66        0    2.71296E+02    32.500    36.325    40.665    23.470    90.257     0.000     5.616     0.000     5.616   104.825   134.045    10.560     0.361     0.001    10.191     0.000     0.000     0.000 .00000E+00 0.000E+00 0.000E+00 0.000E+00 0.000E+00 0.000E+00
BIGSUB  67        0    2.26423E+03    32.500    36.325    40.597    20.594   136.596     0.000     5.863     0.000     5.863   174.757    73.297     5.772     0.286     0.001    11.596     0.000     0.000     0.000 .00000E+00 0.000E+00 0.000E+00 0.000E+00 0.000E+00 0.000E+00
BIGSUB  68        0    2.42857E+02    32.500    36.325    40.966    20.640   136.467     0.000     5.852     0.000     5.852   145.871    67.904     5.169     0.287     0.001    10.378     0.000     0.000     0.000 .00000E+00 0.000E+00 0.000E+00 0.000E+00 0.000E+00 0.000E+00
BIGSUB  69        0    2.37039E+02    32.500    36.325    41.083    20.653   136.427     0.000     5.848     0.000     5.848   131.511    64.277     4.858     0.288     0.001     9.750     0.000     0.000     0.000 .00000E+00 0.000E+00 0.000E+00 0.000E+00 0.000E+00 0.000E+00
BIGSUB   1        0    3.33076E+03   135.600    84.045    68.367    32.804    94.651    29.519     7.731     0.291     9.390   108.432     7.117     2.097     0.257     0.001     3.187     1.368     0.072     0.000 .00000E+00 0.000E+00 0.000E+00 0.000E+00 0.000E+00 0.000E+00
BIGSUB   2        0    3.23373E+03   135.600    84.046    68.420    32.366    89.573    33.809     6.028     0.383    11.249    77.707    18.627     3.517     0.202     0.001     3.682     4.838     0.183     0.000 .00000E+00 0.000E+00 0.000E+00 0.000E+00 0.000E+00 0.000E+00
BIGSUB   3        0    3.19996E+03   135.600    84.044    68.350    31.954    84.792    38.489     4.419     0.481    12.315    33.135    39.714     4.378     0.151     0.001     3.693     7.413     0.267     0.000 .00000E+00 0.000E+00 0.000E+00 0.000E+00 0.000E+00 0.000E+00
BIGSUB   4        0    3.10370E+03   135.600    84.048    68.558    32.804    94.524    27.749     7.636     0.268     9.834   179.640     0.000     1.788     0.255     0.001     2.795     1.930     0.100     0.000 .00000E+00 0.000E+00 0.000E+00 0.000E+00 0.000E+00 0.000E+00
BIGSUB   5        0    3.23231E+03   135.600    84.044    68.360    32.784    94.654    29.580     7.733     0.291     9.371   116.483     6.938     2.153     0.257     0.001     3.276     1.346     0.070     0.000 .00000E+00 0.000E+00 0.000E+00 0.000E+00 0.000E+00 0.000E+00
BIGSUB   6        0    3.40306E+03   135.600    84.044    68.414    31.981    84.798    38.876     4.424     0.488    12.005    36.693    37.818     4.442     0.151     0.001     3.751     7.092     0.256     0.000 .00000E+00 0.000E+00 0.000E+00 0.000E+00 0.000E+00 0.000E+00
BIGSUB   7        0    3.11014E+03   135.600    84.044    68.439    32.803    94.679    29.855     7.747     0.295     9.291    88.927    11.102     2.247     0.258     0.001     3.391     1.249     0.065     0.000 .00000E+00 0.000E+00 0.000E+00 0.000E+00 0.000E+00 0.000E+00
BIGSUB   8        0    3.18780E+03   135.600    84.042    68.363    31.925    84.776    37.554     4.403     0.465    12.933    42.734    42.213     4.927     0.150     0.001     4.163     8.063     0.290     0.000 .00000E+00 0.000E+00 0.000E+00 0.000E+00 0.000E+00 0.000E+00
BIGSUB   9        0    3.37141E+03   135.600    84.040    68.347    32.696    94.553    28.383     7.661     0.276     9.671   128.187     3.081     2.065     0.255     0.001     3.167     1.733     0.090     0.000 .00000E+00 0.000E+00 0.000E+00 0.000E+00 0.000E+00 0.000E+00
BIGSUB  10        0    3.43575E+03   135.600    84.047    68.637    31.968    84.777    37.368     4.405     0.463    13.113    41.090    40.484     4.832     0.150     0.001     4.083     8.244     0.296     0.000 .00000E+00 0.000E+00 0.000E+00 0.000E+00 0.000E+00 0.000E+00
BIGSUB  11        0    3.39979E+03   135.600    84.046    68.609    32.791    94.543    28.109     7.649     0.272     9.730   144.567     1.053     1.908     0.255     0.001     2.947     1.808     0.094     0.000 .00000E+00 0.000E+00 0.000E+00 0.000E+00 0.000E+00 0.000E+00
BIGSUB  12        0    3.11311E+03   135.600    84.040    68.315    32.738    94.660    29.696     7.737     0.293     9.337   101.616    10.060     2.298     0.257     0.001     3.477     1.306     0.068     0.000 .00000E+00 0.000E+00 0.000E+00 0.000E+00 0.000E+00 0.000E+00
BIGSUB  13        0    3.24150E+03   135.600    84.044    68.533    31.953    84.776    37.451     4.403     0.464    12.999    44.047    40.341     4.911     0.150     0.001     4.152     8.132     0.292     0.000 .00000E+00 0.000E+00 0.000E+00 0.000E+00 0.000E+00 0.000E+00
BIGSUB  14        0    3.59396E+03   135.600    84.037    68.358    35.691   128.226    12.856     4.201     0.118     9.479    75.986     7.233     1.797     0.139     0.000     2.235     5.159     0.190     0.000 .00000E+00 0.000E+00 0.000E+00 0.000E+00 0.000E+00 0.000E+00
BIGSUB  15        0    3.93955E+02   135.600    84.041    68.413    32.706    94.546    28.271     7.658     0.275     9.698   154.003     1.712     2.091     0.255     0.001     3.219     1.765     0.092     0.000 .00000E+00 0.000E+00 0.000E+00 0.000E+00 0.000E+00 0.000E+00
BIGSUB  16        0    3.38883E+03   135.600    84.049    68.792    31.968    84.766    36.550     4.395     0.449    13.692    46.517    38.526     5.005     0.150     0.001     4.235     8.847     0.317     0.000 .00000E+00 0.000E+00 0.000E+00 0.000E+00 0.000E+00 0.000E+00
BIGSUB  17        0    3.19092E+03   135.600    84.045    68.651    31.865    84.729    34.403     4.361     0.413    15.189    75.173    22.164     5.620     0.149     0.001     4.783    10.414     0.370     0.000 .00000E+00 0.000E+00 0.000E+00 0.000E+00 0.000E+00 0.000E+00
BIGSUB  18        0    3.26371E+03   135.600    84.050    68.902    31.931    84.741    34.956     4.375     0.422    14.832    70.686    23.802     5.477     0.149     0.001     4.659    10.034     0.357     0.000 .00000E+00 0.000E+00 0.000E+00 0.000E+00 0.000E+00 0.000E+00
BIGSUB  19        0    3.14902E+03   135.600    84.049    68.847    31.906    84.734    34.576     4.367     0.416    15.102    76.596    18.797     5.542     0.149     0.001     4.720    10.318     0.367     0.000 .00000E+00 0.000E+00 0.000E+00 0.000E+00 0.000E+00 0.000E+00
BIGSUB  20        0    3.17588E+03   135.600    84.039    68.431    32.693    94.561    28.475     7.667     0.277     9.639   144.501     2.589     2.120     0.255     0.001     3.256     1.694     0.088     0.000 .00000E+00 0.000E+00 0.000E+00 0.000E+00 0.000E+00 0.000E+00
BIGSUB  21        0    3.38890E+03   135.600    84.039    68.506    32.700    94.544    28.246     7.653     0.274     9.691   154.470     0.687     1.911     0.255     0.001     2.957     1.763     0.092     0.000 .00000E+00 0.000E+00 0.000E+00 0.000E+00 0.000E+00 0.000E+00
BIGSUB  22        0    3.21793E+03   135.600    84.047    68.819    31.758    84.669    30.619     4.305     0.352    17.924   100.763     4.491     6.144     0.147     0.001     5.255    13.267     0.468     0.000 .00000E+00 0.000E+00 0.000E+00 0.000E+00 0.000E+00 0.000E+00
BIGSUB  23        0    3.11865E+03   135.600    84.038    68.438    37.968   153.299     1.547     1.641     0.003     9.220    32.165    11.724     1.834     0.053     0.000     1.796     7.576     0.259     0.000 .00000E+00 0.000E+00 0.000E+00 0.000E+00 0.000E+00 0.000E+00
BIGSUB  24        0    3.22973E+03   135.600    84.039    68.519    36.298   134.415    10.178     3.577     0.089     9.287    83.317     8.077     1.849     0.118     0.000     2.158     5.621     0.203     0.000 .00000E+00 0.000E+00 0.000E+00 0.000E+00 0.000E+00 0.000E+00
BIGSUB  25        0    3.10848E+03   135.600    84.039    68.560    32.709    94.541    28.178     7.650     0.273     9.704   167.840     0.364     1.999     0.255     0.001     3.093     1.781     0.093     0.000 .00000E+00 0.000E+00 0.000E+00 0.000E+00 0.000E+00 0.000E+00
BIGSUB  26        0    3.11554E+03   135.600    84.041    68.660    31.775    84.686    31.801     4.318     0.370    16.990    78.221    31.683     6.191     0.147     0.001     5.264    12.301     0.436     0.000 .00000E+00 0.000E+00 0.000E+00 0.000E+00 0.000E+00 0.000E+00
BIGSUB  27        0    3.96617E+02   135.600    84.040    68.611    31.749    84.677    31.338     4.308     0.363    17.300    97.159    14.345     6.335     0.147     0.001     5.407    12.628     0.446     0.000 .00000E+00 0.000E+00 0.000E+00 0.000E+00 0.000E+00 0.000E+00
BIGSUB  28        0    3.98636E+02   135.600    84.035    68.400    37.866   152.998     0.000     1.534     0.000    10.343    40.866     6.251     1.772     0.050     0.000     1.746     8.810     0.298     0.000 .00000E+00 0.000E+00 0.000E+00 0.000E+00 0.000E+00 0.000E+00
BIGSUB  29        0    3.21971E+03   135.600    84.041    68.678    31.730    84.665    30.527     4.296     0.350    17.899   100.859     4.652     6.156     0.147     0.001     5.265    13.252     0.467     0.000 .00000E+00 0.000E+00 0.000E+00 0.000E+00 0.000E+00 0.000E+00
BIGSUB  30        0    3.30952E+03   135.600    84.042    68.719    31.788    84.687    31.862     4.320     0.371    16.952    89.155    19.617     6.218     0.147     0.001     5.302    12.260     0.434     0.000 .00000E+00 0.000E+00 0.000E+00 0.000E+00 0.000E+00 0.000E+00
BIGSUB  31        0    3.89857E+02   135.600    84.037    68.496    32.667    94.522    27.885     7.634     0.270     9.780   177.377     0.000     1.885     0.254     0.001     2.938     1.877     0.098     0.000 .00000E+00 0.000E+00 0.000E+00 0.000E+00 0.000E+00 0.000E+00
BIGSUB  32        0    3.17953E+03   135.600    84.044    68.815    38.086   152.930     0.000     1.530     0.000    10.343    36.620     6.411     1.672     0.049     0.000     1.646     8.813     0.298     0.000 .00000E+00 0.000E+00 0.000E+00 0.000E+00 0.000E+00 0.000E+00
BIGSUB  33        0    3.93678E+02   135.600    84.042    68.773    38.044   152.605     0.000     1.512     0.000    10.533    40.946     5.565     1.729     0.049     0.000     1.705     9.021     0.305     0.000 .00000E+00 0.000E+00 0.000E+00 0.000E+00 0.000E+00 0.000E+00
BIGSUB  34        0    3.96744E+02   135.600    84.041    68.751    38.046   153.237     0.161     1.555     0.000    10.057    38.656     7.620     1.791     0.050     0.000     1.762     8.501     0.288     0.000 .00000E+00 0.000E+00 0.000E+00 0.000E+00 0.000E+00 0.000E+00
BIGSUB  35        0    3.23249E+03   135.600    84.031    68.323    37.805   153.236     0.243     1.560     0.000    10.040    36.754     7.159     1.723     0.050     0.000     1.696     8.481     0.287     0.000 .00000E+00 0.000E+00 0.000E+00 0.000E+00 0.000E+00 0.000E+00
BIGSUB  36        0    3.31830E+03   135.600    84.042    68.307    32.763    94.674    29.857     7.747     0.295     9.300   110.800     7.404     1.992     0.258     0.001     3.029     1.257     0.066     0.000 .00000E+00 0.000E+00 0.000E+00 0.000E+00 0.000E+00 0.000E+00
BIGSUB  37        0    3.57013E+02   135.600    84.033    68.354    37.832   153.191     0.000     1.543     0.000    10.227    38.436     8.047     1.807     0.050     0.000     1.777     8.683     0.293     0.000 .00000E+00 0.000E+00 0.000E+00 0.000E+00 0.000E+00 0.000E+00
BIGSUB  38        0    3.19539E+03   135.600    84.040    68.529    31.700    84.663    30.489     4.296     0.350    17.955   109.035     0.000     6.136     0.147     0.001     5.276    13.309     0.469     0.000 .00000E+00 0.000E+00 0.000E+00 0.000E+00 0.000E+00 0.000E+00
BIGSUB  39        0    3.15918E+03   135.600    84.041    68.303    32.179    88.047    34.582     5.498     0.403    11.831    74.550    29.340     4.045     0.185     0.001     3.951     5.929     0.222     0.000 .00000E+00 0.000E+00 0.000E+00 0.000E+00 0.000E+00 0.000E+00
BIGSUB  40        0    3.17147E+03   135.600    84.038    68.471    31.697    84.665    30.666     4.296     0.352    17.792   100.364     6.781     6.205     0.147     0.001     5.304    13.143     0.463     0.000 .00000E+00 0.000E+00 0.000E+00 0.000E+00 0.000E+00 0.000E+00
BIGSUB  41        0    3.18064E+03   135.600    84.040    68.262    32.699    94.572    28.628     7.680     0.279     9.621   137.356     3.599     2.173     0.256     0.001     3.329     1.661     0.087     0.000 .00000E+00 0.000E+00 0.000E+00 0.000E+00 0.000E+00 0.000E+00
BIGSUB  42        0    3.93102E+01   135.600    84.024    67.905    39.546   204.865     0.000     0.598     0.000     2.842    12.012     1.035     0.236     0.017     0.000     0.484     2.244     0.094     0.000 .00000E+00 0.000E+00 0.000E+00 0.000E+00 0.000E+00 0.000E+00
BIGSUB  43        0    3.33275E+03   135.600    84.032    68.314    37.800   153.073     0.000     1.537     0.000    10.296    40.579     4.919     1.688     0.050     0.000     1.666     8.759     0.296     0.000 .00000E+00 0.000E+00 0.000E+00 0.000E+00 0.000E+00 0.000E+00
BIGSUB  44        0    3.12614E+03   135.600    84.040    68.351    31.920    84.774    37.450     4.400     0.464    12.972    44.955    39.834     4.896     0.150     0.001     4.140     8.108     0.291     0.000 .00000E+00 0.000E+00 0.000E+00 0.000E+00 0.000E+00 0.000E+00
BIGSUB  45        0    3.21710E+03   135.600    84.039    68.308    32.709    94.625    29.279     7.713     0.288     9.443   110.294     6.550     2.100     0.257     0.001     3.195     1.442     0.075     0.000 .00000E+00 0.000E+00 0.000E+00 0.000E+00 0.000E+00 0.000E+00
BIGSUB  46        0    3.16302E+01   135.600    84.023    67.847    31.380    84.572    25.403     4.192     0.270    21.462   109.155     0.964     6.349     0.143     0.001     5.433    17.000     0.586     0.000 .00000E+00 0.000E+00 0.000E+00 0.000E+00 0.000E+00 0.000E+00
BIGSUB  47        0    3.62083E+02   135.600    84.034    68.300    37.871   153.291     1.150     1.617     0.002     9.474    33.335    11.580     1.854     0.052     0.000     1.816     7.856     0.267     0.000 .00000E+00 0.000E+00 0.000E+00 0.000E+00 0.000E+00 0.000E+00
BIGSUB  48        0    3.13295E+03   135.600    84.036    68.115    32.654    94.649    29.654     7.732     0.292     9.356    81.722    10.671     2.172     0.257     0.001     3.277     1.331     0.070     0.000 .00000E+00 0.000E+00 0.000E+00 0.000E+00 0.000E+00 0.000E+00
BIGSUB  49        0    3.53468E+01   135.600    84.024    67.898    37.664   153.298     2.199     1.679     0.005     8.859    26.144    17.086     1.903     0.054     0.000     1.854     7.175     0.245     0.000 .00000E+00 0.000E+00 0.000E+00 0.000E+00 0.000E+00 0.000E+00
BIGSUB  50        0    3.25690E+03   135.600    84.033    68.273    37.839   153.280     0.910     1.602     0.001     9.626    35.014     8.819     1.771     0.052     0.000     1.739     8.022     0.272     0.000 .00000E+00 0.000E+00 0.000E+00 0.000E+00 0.000E+00 0.000E+00
BIGSUB  51        0    3.23941E+03   135.600    84.043    68.535    31.766    84.693    32.274     4.329     0.378    16.734    64.991    39.112     5.999     0.148     0.001     5.091    12.026     0.427     0.000 .00000E+00 0.000E+00 0.000E+00 0.000E+00 0.000E+00 0.000E+00
BIGSUB  52        0    3.16015E+03   135.600    84.038    68.318    32.655    94.538    28.216     7.654     0.274     9.715   167.008     0.252     1.948     0.255     0.001     3.017     1.786     0.093     0.000 .00000E+00 0.000E+00 0.000E+00 0.000E+00 0.000E+00 0.000E+00
BIGSUB  53        0    3.62233E+02   135.600    84.037    68.217    32.639    94.555    28.467     7.669     0.277     9.658   146.095     3.370     2.230     0.255     0.001     3.418     1.712     0.089     0.000 .00000E+00 0.000E+00 0.000E+00 0.000E+00 0.000E+00 0.000E+00
BIGSUB  54        0    3.39093E+03   135.600    84.036    68.276    32.610    94.506    27.691     7.625     0.267     9.847   175.483     0.000     1.627     0.254     0.001     2.556     1.954     0.101     0.000 .00000E+00 0.000E+00 0.000E+00 0.000E+00 0.000E+00 0.000E+00
BIGSUB  55        0    3.94321E+02   135.600    84.037    68.323    37.924   153.292     1.083     1.614     0.002     9.535    34.444    10.577     1.837     0.052     0.000     1.802     7.920     0.269     0.000 .00000E+00 0.000E+00 0.000E+00 0.000E+00 0.000E+00 0.000E+00
BIGSUB  56        0    3.92100E+02   135.600    84.036    68.242    32.605    94.496    27.521     7.618     0.265     9.895   190.299     0.000     1.693     0.254     0.001     2.661     2.012     0.104     0.000 .00000E+00 0.000E+00 0.000E+00 0.000E+00 0.000E+00 0.000E+00
BIGSUB  57        0    3.28379E+03   135.600    84.034    68.247    37.861   153.287     1.001     1.609     0.001     9.585    32.477     9.413     1.739     0.052     0.000     1.706     7.975     0.271     0.000 .00000E+00 0.000E+00 0.000E+00 0.000E+00 0.000E+00 0.000E+00
BIGSUB  58        0    3.12635E+03   135.600    84.038    68.380    32.642    94.483    27.216     7.602     0.261     9.964   205.212     0.000     1.485     0.253     0.001     2.360     2.101     0.109     0.000 .00000E+00 0.000E+00 0.000E+00 0.000E+00 0.000E+00 0.000E+00
BIGSUB  59        0    3.45554E+03   135.600    84.034    68.262    32.559    94.462    26.935     7.584     0.257    10.035   210.794     0.000     1.207     0.253     0.001     1.950     2.194     0.113     0.000 .00000E+00 0.000E+00 0.000E+00 0.000E+00 0.000E+00 0.000E+00
BIGSUB  60        0    3.21268E+02   135.600    84.023    67.811    37.572   153.232     0.264     1.561     0.000    10.100    33.294    11.184     1.825     0.051     0.000     1.788     8.538     0.288     0.000 .00000E+00 0.000E+00 0.000E+00 0.000E+00 0.000E+00 0.000E+00
BIGSUB  61        0    3.43515E+02   135.600    84.031    68.183    37.807   153.290     1.194     1.619     0.002     9.458    32.804    12.263     1.871     0.052     0.000     1.832     7.836     0.267     0.000 .00000E+00 0.000E+00 0.000E+00 0.000E+00 0.000E+00 0.000E+00
BIGSUB  62        0    3.65740E+02   135.600    84.028    68.047    37.699   153.243     0.384     1.569     0.001     9.995    37.437     8.995     1.834     0.051     0.000     1.801     8.425     0.285     0.000 .00000E+00 0.000E+00 0.000E+00 0.000E+00 0.000E+00 0.000E+00
BIGSUB  63        0    3.46618E+02   135.600    84.024    67.916    37.595   152.843     0.000     1.525     0.000    10.476    39.028     7.581     1.796     0.049     0.000     1.767     8.952     0.302     0.000 .00000E+00 0.000E+00 0.000E+00 0.000E+00 0.000E+00 0.000E+00
BIGSUB  64        0    3.31590E+03   135.600    84.031    68.219    39.656   202.809     0.000     0.524     0.000     3.346    15.078     0.530     0.248     0.015     0.000     0.512     2.822     0.119     0.000 .00000E+00 0.000E+00 0.000E+00 0.000E+00 0.000E+00 0.000E+00
BIGSUB  65        0    3.38183E+02   135.600    84.024    67.935    37.605   153.056     0.000     1.536     0.000    10.346    37.104     8.741     1.806     0.050     0.000     1.775     8.810     0.297     0.000 .00000E+00 0.000E+00 0.000E+00 0.000E+00 0.000E+00 0.000E+00
BIGSUB  66        0    3.71296E+02   135.600    84.027    68.047    37.683   153.243     0.402     1.570     0.001     9.975    34.081     9.683     1.779     0.051     0.000     1.745     8.404     0.284     0.000 .00000E+00 0.000E+00 0.000E+00 0.000E+00 0.000E+00 0.000E+00
BIGSUB  67        0    3.26423E+03   135.600    84.028    68.134    39.621   203.319     0.000     0.539     0.000     3.214    16.330     0.616     0.266     0.016     0.000     0.548     2.675     0.113     0.000 .00000E+00 0.000E+00 0.000E+00 0.000E+00 0.000E+00 0.000E+00
BIGSUB  68        0    3.42857E+02   135.600    84.021    67.878    39.491   204.057     0.000     0.561     0.000     3.031    16.079     1.391     0.305     0.016     0.000     0.626     2.470     0.104     0.000 .00000E+00 0.000E+00 0.000E+00 0.000E+00 0.000E+00 0.000E+00
BIGSUB  69        0    3.37039E+02   135.600    84.019    67.776    39.455   204.564     0.000     0.578     0.000     2.904    14.993     1.795     0.312     0.017     0.000     0.639     2.326     0.099     0.000 .00000E+00 0.000E+00 0.000E+00 0.000E+00 0.000E+00 0.000E+00
BIGSUB   1        0    4.33076E+03   274.600   159.404    32.420    23.923    93.730   181.609    74.489     7.573    89.349   840.436    15.724     3.187     1.912     0.004     4.969     7.239     0.329     0.004 .00000E+00 0.000E+00 0.000E+00 0.000E+00 0.000E+00 0.000E+00
BIGSUB   2        0    4.23373E+03   274.600   159.408    32.458    23.155    87.028   187.683    62.282     8.098    87.611   635.626    43.194     7.478     1.586     0.005     7.706    17.178     0.482     0.004 .00000E+00 0.000E+00 0.000E+00 0.000E+00 0.000E+00 0.000E+00
BIGSUB   3        0    4.19996E+03   274.600   159.394    32.385    22.373    80.737   195.378    50.711     8.695    83.887   330.458    81.557    13.045     1.277     0.005    11.162    24.423     0.587     0.004 .00000E+00 0.000E+00 0.000E+00 0.000E+00 0.000E+00 0.000E+00
BIGSUB   4        0    4.10370E+03   274.600   159.423    32.569    23.979    93.300   176.220    74.184     7.303    91.768  1372.085     0.000     0.964     1.904     0.001     1.677    10.235     0.466     0.003 .00000E+00 0.000E+00 0.000E+00 0.000E+00 0.000E+00 0.000E+00
BIGSUB   5        0    4.23231E+03   274.600   159.393    32.386    23.904    93.753   181.826    74.538     7.582    89.291   882.018    14.933     3.073     1.913     0.003     4.799     7.123     0.324     0.004 .00000E+00 0.000E+00 0.000E+00 0.000E+00 0.000E+00 0.000E+00
BIGSUB   6        0    4.40306E+03   274.600   159.394    32.414    22.387    80.771   196.575    50.757     8.757    82.935   360.660    79.407    12.730     1.278     0.005    10.894    23.363     0.562     0.004 .00000E+00 0.000E+00 0.000E+00 0.000E+00 0.000E+00 0.000E+00
BIGSUB   7        0    4.11014E+03   274.600   159.393    32.425    23.931    93.828   182.709    74.591     7.626    88.874   679.528    20.303     3.922     1.914     0.004     6.061     6.610     0.301     0.004 .00000E+00 0.000E+00 0.000E+00 0.000E+00 0.000E+00 0.000E+00
BIGSUB   8        0    4.18780E+03   274.600   159.381    32.353    22.356    80.670   192.898    50.688     8.558    85.906   418.350    67.444    12.099     1.276     0.005    10.396    26.603     0.641     0.004 .00000E+00 0.000E+00 0.000E+00 0.000E+00 0.000E+00 0.000E+00
BIGSUB   9        0    4.37141E+03   274.600   159.371    32.315    23.835    93.456   178.242    74.071     7.399    90.699  1033.868     0.609     1.668     1.901     0.002     2.751     9.182     0.418     0.003 .00000E+00 0.000E+00 0.000E+00 0.000E+00 0.000E+00 0.000E+00
BIGSUB  10        0    4.43575E+03   274.600   159.418    32.591    22.469    80.628   192.116    50.634     8.525    86.428   414.345    68.230    12.120     1.275     0.005    10.413    27.212     0.656     0.004 .00000E+00 0.000E+00 0.000E+00 0.000E+00 0.000E+00 0.000E+00
BIGSUB  11        0    4.39979E+03   274.600   159.409    32.551    23.967    93.375   177.424    74.082     7.360    91.072  1156.971     0.137     1.335     1.901     0.002     2.242     9.583     0.436     0.003 .00000E+00 0.000E+00 0.000E+00 0.000E+00 0.000E+00 0.000E+00
BIGSUB  12        0    4.11311E+03   274.600   159.370    32.298    23.854    93.799   182.230    74.557     7.600    89.118   768.611    16.273     3.480     1.913     0.004     5.416     6.913     0.315     0.004 .00000E+00 0.000E+00 0.000E+00 0.000E+00 0.000E+00 0.000E+00
BIGSUB  13        0    4.24150E+03   274.600   159.395    32.475    22.414    80.652   192.577    50.683     8.543    86.127   432.806    66.240    11.910     1.276     0.005    10.235    26.844     0.647     0.004 .00000E+00 0.000E+00 0.000E+00 0.000E+00 0.000E+00 0.000E+00
BIGSUB  14        0    4.59396E+03   274.600   159.355    32.274    25.674   124.858   178.336    59.385     6.358    88.628   898.516    17.464     5.665     1.529     0.002     6.091    22.848     0.806     0.003 .00000E+00 0.000E+00 0.000E+00 0.000E+00 0.000E+00 0.000E+00
BIGSUB  15        0    4.93955E+02   274.600   159.374    32.357    23.857    93.427   177.927    74.242     7.383    91.022  1175.878     0.189     1.405     1.905     0.002     2.348     9.351     0.425     0.003 .00000E+00 0.000E+00 0.000E+00 0.000E+00 0.000E+00 0.000E+00
BIGSUB  16        0    4.38883E+03   274.600   159.429    32.698    22.518    80.552   189.743    50.594     8.401    88.306   469.249    59.350    11.349     1.274     0.004     9.771    29.255     0.707     0.003 .00000E+00 0.000E+00 0.000E+00 0.000E+00 0.000E+00 0.000E+00
BIGSUB  17        0    4.19092E+03   274.600   159.402    32.551    22.443    80.396   183.736    50.530     8.076    93.222   727.189    32.604     8.550     1.272     0.003     7.430    34.563     0.839     0.003 .00000E+00 0.000E+00 0.000E+00 0.000E+00 0.000E+00 0.000E+00
BIGSUB  18        0    4.26371E+03   274.600   159.436    32.769    22.549    80.417   185.123    50.566     8.157    92.057   687.052    36.936     8.945     1.273     0.004     7.756    33.280     0.808     0.003 .00000E+00 0.000E+00 0.000E+00 0.000E+00 0.000E+00 0.000E+00
BIGSUB  19        0    4.14902E+03   274.600   159.430    32.725    22.527    80.390   184.039    50.548     8.099    92.944   733.550    34.948     8.539     1.273     0.003     7.412    34.243     0.832     0.003 .00000E+00 0.000E+00 0.000E+00 0.000E+00 0.000E+00 0.000E+00
BIGSUB  20        0    4.17588E+03   274.600   159.363    32.332    23.846    93.489   178.599    74.261     7.415    90.696  1116.462     0.374     1.541     1.906     0.002     2.556     8.973     0.408     0.003 .00000E+00 0.000E+00 0.000E+00 0.000E+00 0.000E+00 0.000E+00
BIGSUB  21        0    4.38890E+03   274.600   159.367    32.379    23.867    93.429   177.928    74.168     7.381    90.939  1213.020     0.071     1.252     1.903     0.002     2.115     9.344     0.425     0.003 .00000E+00 0.000E+00 0.000E+00 0.000E+00 0.000E+00 0.000E+00
BIGSUB  22        0    4.21793E+03   274.600   159.416    32.671    22.492    80.074   172.669    50.306     7.495   102.068   995.650     0.679     5.508     1.267     0.002     4.907    44.218     1.080     0.003 .00000E+00 0.000E+00 0.000E+00 0.000E+00 0.000E+00 0.000E+00
BIGSUB  23        0    4.11865E+03   274.600   159.357    32.317    27.091   148.262   179.274    48.557     5.626    86.622   857.856    23.839     8.212     1.255     0.002     8.270    32.411     1.072     0.002 .00000E+00 0.000E+00 0.000E+00 0.000E+00 0.000E+00 0.000E+00
BIGSUB  24        0    4.22973E+03   274.600   159.365    32.378    26.085   130.635   179.146    56.807     6.202    87.709  1038.664    16.299     5.872     1.464     0.002     6.130    24.666     0.855     0.002 .00000E+00 0.000E+00 0.000E+00 0.000E+00 0.000E+00 0.000E+00
BIGSUB  25        0    4.10848E+03   274.600   159.369    32.411    23.884    93.414   177.740    74.235     7.371    91.092  1271.787     0.025     1.193     1.905     0.002     2.023     9.440     0.429     0.003 .00000E+00 0.000E+00 0.000E+00 0.000E+00 0.000E+00 0.000E+00
BIGSUB  26        0    4.11554E+03   274.600   159.382    32.497    22.411    80.196   176.482    50.352     7.685    99.019   778.797    11.268     7.494     1.268     0.002     6.590    40.931     0.997     0.003 .00000E+00 0.000E+00 0.000E+00 0.000E+00 0.000E+00 0.000E+00
BIGSUB  27        0    4.96617E+02   274.600   159.371    32.441    22.383    80.167   175.214    50.352     7.616   100.075   939.390     2.572     5.985     1.268     0.002     5.312    42.058     1.026     0.003 .00000E+00 0.000E+00 0.000E+00 0.000E+00 0.000E+00 0.000E+00
BIGSUB  28        0    4.98636E+02   274.600   159.339    32.244    27.030   148.102   172.157    48.438     5.311    91.445  1148.443     9.104     6.551     1.252     0.002     6.662    37.668     1.247     0.002 .00000E+00 0.000E+00 0.000E+00 0.000E+00 0.000E+00 0.000E+00
BIGSUB  29        0    4.21971E+03   274.600   159.380    32.500    22.410    80.094   172.752    50.294     7.488   102.027   998.441     0.700     5.517     1.267     0.002     4.914    44.196     1.080     0.003 .00000E+00 0.000E+00 0.000E+00 0.000E+00 0.000E+00 0.000E+00
BIGSUB  30        0    4.30952E+03   274.600   159.389    32.545    22.435    80.196   176.627    50.363     7.694    98.896   884.692     4.750     6.462     1.268     0.002     5.716    40.789     0.993     0.003 .00000E+00 0.000E+00 0.000E+00 0.000E+00 0.000E+00 0.000E+00
BIGSUB  31        0    4.89857E+02   274.600   159.356    32.342    23.844    93.370   176.829    74.187     7.325    91.508  1346.270     0.000     1.038     1.904     0.002     1.792     9.951     0.452     0.003 .00000E+00 0.000E+00 0.000E+00 0.000E+00 0.000E+00 0.000E+00
BIGSUB  32        0    4.17953E+03   274.600   159.397    32.614    27.308   148.068   171.832    48.437     5.305    91.462  1066.171    10.843     6.785     1.252     0.002     6.889    37.693     1.249     0.002 .00000E+00 0.000E+00 0.000E+00 0.000E+00 0.000E+00 0.000E+00
BIGSUB  33        0    4.93678E+02   274.600   159.387    32.564    27.269   148.046   170.418    48.428     5.254    92.272  1169.890     8.075     6.407     1.252     0.002     6.522    38.564     1.278     0.002 .00000E+00 0.000E+00 0.000E+00 0.000E+00 0.000E+00 0.000E+00
BIGSUB  34        0    4.96744E+02   274.600   159.381    32.536    27.247   148.118   173.886    48.476     5.382    90.267  1073.478    12.027     6.933     1.253     0.002     7.032    36.382     1.205     0.002 .00000E+00 0.000E+00 0.000E+00 0.000E+00 0.000E+00 0.000E+00
BIGSUB  35        0    4.23249E+03   274.600   159.315    32.137    26.945   148.158   174.261    48.451     5.393    90.155  1047.427    12.071     6.939     1.252     0.002     7.039    36.284     1.201     0.002 .00000E+00 0.000E+00 0.000E+00 0.000E+00 0.000E+00 0.000E+00
BIGSUB  36        0    4.31830E+03   274.600   159.381    32.325    23.874    93.833   182.670    74.595     7.624    88.922   838.580    23.194     3.716     1.914     0.004     5.724     6.655     0.303     0.004 .00000E+00 0.000E+00 0.000E+00 0.000E+00 0.000E+00 0.000E+00
BIGSUB  37        0    4.57013E+02   274.600   159.326    32.186    26.984   148.125   173.065    48.447     5.342    90.956  1069.228    12.802     7.045     1.252     0.002     7.141    37.140     1.230     0.002 .00000E+00 0.000E+00 0.000E+00 0.000E+00 0.000E+00 0.000E+00
BIGSUB  38        0    4.19539E+03   274.600   159.373    32.408    22.366    80.095   172.579    50.300     7.480   102.206  1064.872     0.000     4.989     1.267     0.002     4.495    44.377     1.084     0.003 .00000E+00 0.000E+00 0.000E+00 0.000E+00 0.000E+00 0.000E+00
BIGSUB  39        0    4.15918E+03   274.600   159.376    32.309    22.836    84.965   188.272    58.588     8.184    87.483   624.037    45.223     8.613     1.487     0.004     7.876    20.658     0.560     0.004 .00000E+00 0.000E+00 0.000E+00 0.000E+00 0.000E+00 0.000E+00
BIGSUB  40        0    4.17147E+03   274.600   159.359    32.338    22.333    80.120   173.242    50.302     7.511   101.679   987.815     1.052     5.613     1.267     0.002     4.996    43.818     1.070     0.003 .00000E+00 0.000E+00 0.000E+00 0.000E+00 0.000E+00 0.000E+00
BIGSUB  41        0    4.18064E+03   274.600   159.373    32.280    23.822    93.516   178.940    74.281     7.435    90.558  1063.861     0.627     1.681     1.906     0.002     2.771     8.795     0.400     0.003 .00000E+00 0.000E+00 0.000E+00 0.000E+00 0.000E+00 0.000E+00
BIGSUB  42        0    4.93102E+01   274.600   159.270    31.800    27.991   227.843   145.838    65.882     3.679    83.374  1387.078    20.076     4.673     1.703     0.005     9.716    13.797     0.631     0.001 .00000E+00 0.000E+00 0.000E+00 0.000E+00 0.000E+00 0.000E+00
BIGSUB  43        0    4.33275E+03   274.600   159.318    32.142    26.950   148.119   172.565    48.429     5.324    91.238  1169.161     7.213     6.259     1.251     0.002     6.379    37.458     1.240     0.002 .00000E+00 0.000E+00 0.000E+00 0.000E+00 0.000E+00 0.000E+00
BIGSUB  44        0    4.12614E+03   274.600   159.372    32.319    22.339    80.670   192.712    50.691     8.545    86.068   436.008    63.819    11.637     1.276     0.005     9.998    26.776     0.646     0.004 .00000E+00 0.000E+00 0.000E+00 0.000E+00 0.000E+00 0.000E+00
BIGSUB  45        0    4.21710E+03   274.600   159.364    32.275    23.832    93.695   180.971    74.414     7.536    89.633   858.982    13.732     2.996     1.910     0.003     4.689     7.635     0.347     0.004 .00000E+00 0.000E+00 0.000E+00 0.000E+00 0.000E+00 0.000E+00
BIGSUB  46        0    4.16302E+01   274.600   159.264    31.754    22.040    79.761   158.085    49.981     6.699   113.984  1049.893     0.091     5.199     1.259     0.002     4.644    57.261     1.416     0.002 .00000E+00 0.000E+00 0.000E+00 0.000E+00 0.000E+00 0.000E+00
BIGSUB  47        0    4.62083E+02   274.600   159.332    32.178    26.985   148.237   177.788    48.527     5.555    87.722   891.239    22.466     8.089     1.254     0.002     8.151    33.611     1.112     0.002 .00000E+00 0.000E+00 0.000E+00 0.000E+00 0.000E+00 0.000E+00
BIGSUB  48        0    4.13295E+03   274.600   159.341    32.114    23.748    93.804   182.077    74.421     7.591    89.103   648.705    19.848     3.916     1.909     0.004     6.053     7.043     0.320     0.004 .00000E+00 0.000E+00 0.000E+00 0.000E+00 0.000E+00 0.000E+00
BIGSUB  49        0    4.53468E+01   274.600   159.268    31.793    26.687   148.374   181.860    48.577     5.735    85.018   652.715    45.472    10.143     1.255     0.003    10.120    30.677     1.013     0.002 .00000E+00 0.000E+00 0.000E+00 0.000E+00 0.000E+00 0.000E+00
BIGSUB  50        0    4.25690E+03   274.600   159.324    32.141    26.955   148.218   176.867    48.497     5.512    88.363   970.661    15.913     7.385     1.253     0.002     7.470    34.325     1.136     0.002 .00000E+00 0.000E+00 0.000E+00 0.000E+00 0.000E+00 0.000E+00
BIGSUB  51        0    4.23941E+03   274.600   159.392    32.466    22.398    80.226   177.602    50.273     7.751    98.039   671.638    19.822     8.536     1.266     0.003     7.470    39.964     0.972     0.003 .00000E+00 0.000E+00 0.000E+00 0.000E+00 0.000E+00 0.000E+00
BIGSUB  52        0    4.16015E+03   274.600   159.355    32.254    23.797    93.427   177.763    74.224     7.373    91.108  1276.007     0.018     1.168     1.905     0.002     1.985     9.464     0.430     0.003 .00000E+00 0.000E+00 0.000E+00 0.000E+00 0.000E+00 0.000E+00
BIGSUB  53        0    4.62233E+02   274.600   159.348    32.185    23.763    93.491   178.499    74.277     7.410    90.800  1107.032     0.473     1.611     1.906     0.002     2.663     9.066     0.412     0.003 .00000E+00 0.000E+00 0.000E+00 0.000E+00 0.000E+00 0.000E+00
BIGSUB  54        0    4.39093E+03   274.600   159.343    32.198    23.763    93.341   176.136    74.059     7.291    91.757  1387.732     0.000     0.885     1.900     0.001     1.554    10.361     0.471     0.003 .00000E+00 0.000E+00 0.000E+00 0.000E+00 0.000E+00 0.000E+00
BIGSUB  55        0    4.94321E+02   274.600   159.353    32.249    27.044   148.219   177.397    48.527     5.541    87.974   927.186    19.624     7.790     1.254     0.002     7.862    33.878     1.121     0.002 .00000E+00 0.000E+00 0.000E+00 0.000E+00 0.000E+00 0.000E+00
BIGSUB  56        0    4.92100E+02   274.600   159.345    32.187    23.758    93.309   175.575    74.122     7.264    92.100  1453.934     0.000     0.838     1.902     0.001     1.480    10.669     0.485     0.003 .00000E+00 0.000E+00 0.000E+00 0.000E+00 0.000E+00 0.000E+00
BIGSUB  57        0    4.28379E+03   274.600   159.334    32.156    26.972   148.221   177.138    48.487     5.527    88.158   909.756    18.624     7.685     1.253     0.002     7.761    34.116     1.129     0.002 .00000E+00 0.000E+00 0.000E+00 0.000E+00 0.000E+00 0.000E+00
BIGSUB  58        0    4.12635E+03   274.600   159.361    32.300    23.821    93.246   174.646    74.081     7.218    92.492  1576.155     0.000     0.652     1.901     0.001     1.187    11.147     0.507     0.003 .00000E+00 0.000E+00 0.000E+00 0.000E+00 0.000E+00 0.000E+00
BIGSUB  59        0    4.45554E+03   274.600   159.330    32.153    23.736    93.215   173.793    73.949     7.173    92.809  1672.830     0.000     0.493     1.898     0.001     0.937    11.642     0.529     0.003 .00000E+00 0.000E+00 0.000E+00 0.000E+00 0.000E+00 0.000E+00
BIGSUB  60        0    4.21268E+02   274.600   159.259    31.722    26.627   148.198   174.224    48.446     5.388    90.367   917.254    21.712     8.047     1.252     0.002     8.111    36.505     1.207     0.002 .00000E+00 0.000E+00 0.000E+00 0.000E+00 0.000E+00 0.000E+00
BIGSUB  61        0    4.43515E+02   274.600   159.315    32.070    26.903   148.249   177.967    48.525     5.562    87.640   870.990    24.311     8.277     1.254     0.002     8.332    33.524     1.109     0.002 .00000E+00 0.000E+00 0.000E+00 0.000E+00 0.000E+00 0.000E+00
BIGSUB  62        0    4.65740E+02   274.600   159.291    31.932    26.797   148.182   174.724    48.464     5.413    89.936  1026.718    14.864     7.286     1.252     0.002     7.374    36.031     1.192     0.002 .00000E+00 0.000E+00 0.000E+00 0.000E+00 0.000E+00 0.000E+00
BIGSUB  63        0    4.46618E+02   274.600   159.267    31.798    26.687   148.131   171.520    48.408     5.283    91.970  1098.083    11.797     6.933     1.251     0.002     7.033    38.252     1.266     0.002 .00000E+00 0.000E+00 0.000E+00 0.000E+00 0.000E+00 0.000E+00
BIGSUB  64        0    4.31590E+03   274.600   159.311    32.075    28.296   227.567   136.436    65.170     3.387    85.925  1933.357     3.441     3.574     1.685     0.002     7.623    17.354     0.794     0.001 .00000E+00 0.000E+00 0.000E+00 0.000E+00 0.000E+00 0.000E+00
BIGSUB  65        0    4.38183E+02   274.600   159.268    31.809    26.695   148.148   172.488    48.421     5.317    91.426  1038.165    14.615     7.277     1.251     0.002     7.366    37.661     1.246     0.002 .00000E+00 0.000E+00 0.000E+00 0.000E+00 0.000E+00 0.000E+00
BIGSUB  66        0    4.71296E+02   274.600   159.285    31.913    26.781   148.187   174.847    48.461     5.418    89.853   951.903    18.198     7.664     1.252     0.002     7.740    35.947     1.189     0.002 .00000E+00 0.000E+00 0.000E+00 0.000E+00 0.000E+00 0.000E+00
BIGSUB  67        0    4.26423E+03   274.600   159.295    31.985    28.192   227.583   138.845    65.346     3.461    85.306  1974.340     3.735     3.620     1.690     0.002     7.714    16.485     0.755     0.001 .00000E+00 0.000E+00 0.000E+00 0.000E+00 0.000E+00 0.000E+00
BIGSUB  68        0    4.42857E+02   274.600   159.252    31.732    27.902   227.626   142.355    65.526     3.567    84.375  1757.808     8.669     4.198     1.694     0.003     8.874    15.267     0.701     0.001 .00000E+00 0.000E+00 0.000E+00 0.000E+00 0.000E+00 0.000E+00
BIGSUB  69        0    4.37039E+02   274.600   159.237    31.638    27.796   227.691   144.664    65.670     3.638    83.729  1591.817    12.090     4.511     1.697     0.003     9.502    14.406     0.662     0.001 .00000E+00 0.000E+00 0.000E+00 0.000E+00 0.000E+00 0.000E+00
BIGSUB   1        0    5.33076E+03   225.100    36.902    82.867    54.826    90.838   134.585    25.559    21.183    60.677   256.925     0.301     0.084     0.711     0.000     0.145    13.679     0.318     0.018 .00000E+00 0.000E+00 0.000E+00 0.000E+00 0.000E+00 0.000E+00
BIGSUB   2        0    5.23373E+03   225.100    36.903    82.992    53.935    85.219   133.934    19.378    21.866    63.864   176.310     1.412     0.267     0.543     0.001     0.282    22.350     0.349     0.017 .00000E+00 0.000E+00 0.000E+00 0.000E+00 0.000E+00 0.000E+00
BIGSUB   3        0    5.19996E+03   225.100    36.900    82.684    52.885    79.942   134.986    13.656    22.767    65.341    76.368     2.389     0.386     0.387     0.001     0.349    28.633     0.364     0.017 .00000E+00 0.000E+00 0.000E+00 0.000E+00 0.000E+00 0.000E+00
BIGSUB   4        0    5.10370E+03   225.100    36.906    83.396    54.969    90.705   128.956    25.374    20.425    65.354   421.714     0.000     0.000     0.707     0.000     0.009    19.307     0.451     0.017 .00000E+00 0.000E+00 0.000E+00 0.000E+00 0.000E+00 0.000E+00
BIGSUB   5        0    5.23231E+03   225.100    36.900    82.665    54.739    90.847   134.878    25.530    21.215    60.466   271.367     0.256     0.077     0.711     0.000     0.134    13.464     0.313     0.018 .00000E+00 0.000E+00 0.000E+00 0.000E+00 0.000E+00 0.000E+00
BIGSUB   6        0    5.40306E+03   225.100    36.900    82.725    52.905    79.950   136.037    13.638    22.926    64.249    83.820     2.295     0.407     0.386     0.001     0.366    27.398     0.348     0.017 .00000E+00 0.000E+00 0.000E+00 0.000E+00 0.000E+00 0.000E+00
BIGSUB   7        0    5.11014E+03   225.100    36.900    82.744    54.798    90.869   135.768    25.566    21.337    59.659   208.633     0.565     0.122     0.712     0.000     0.204    12.497     0.291     0.018 .00000E+00 0.000E+00 0.000E+00 0.000E+00 0.000E+00 0.000E+00
BIGSUB   8        0    5.18780E+03   225.100    36.898    82.454    52.780    79.926   132.882    13.612    22.432    67.502    97.422     1.144     0.245     0.385     0.000     0.229    31.177     0.397     0.017 .00000E+00 0.000E+00 0.000E+00 0.000E+00 0.000E+00 0.000E+00
BIGSUB   9        0    5.37141E+03   225.100    36.897    82.246    54.457    90.758   131.345    25.632    20.716    63.951   311.793     0.000     0.000     0.713     0.000     0.011    17.351     0.404     0.017 .00000E+00 0.000E+00 0.000E+00 0.000E+00 0.000E+00 0.000E+00
BIGSUB  10        0    5.43575E+03   225.100    36.905    83.368    53.180    79.913   131.913    13.652    22.323    68.095    95.327     1.151     0.254     0.387     0.000     0.236    31.840     0.407     0.017 .00000E+00 0.000E+00 0.000E+00 0.000E+00 0.000E+00 0.000E+00
BIGSUB  11        0    5.39979E+03   225.100    36.904    83.172    54.869    90.729   130.229    25.553    20.592    64.485   349.925     0.000     0.000     0.711     0.000     0.010    18.090     0.422     0.017 .00000E+00 0.000E+00 0.000E+00 0.000E+00 0.000E+00 0.000E+00
[...]
BIGSUB  67        0 2013.26423E+03  1671.600   407.148   686.263   489.140   217.609   634.559   233.667   217.987   659.624  7302.280    80.000     9.800     6.527     0.004    20.171   201.251     4.074     0.180 .00000E+00 0.000E+00 0.000E+00 0.000E+00 0.000E+00 0.000E+00
BIGSUB  68        0 2013.42857E+02  1671.600   406.957   683.069   486.565   217.502   651.573   233.968   223.965   651.654  6440.274    79.999     9.800     6.534     0.004    20.168   186.816     3.766     0.188 .00000E+00 0.000E+00 0.000E+00 0.000E+00 0.000E+00 0.000E+00
BIGSUB  69        0 2013.37039E+02  1671.600   406.892   681.830   485.628   217.484   662.705   234.254   227.852   645.623  5824.802    79.999     9.800     6.540     0.005    20.165   176.492     3.551     0.194 .00000E+00 0.000E+00 0.000E+00 0.000E+00 0.000E+00 0.000E+00
BIGSUB   1        0  1.0.33076E+03  1671.600   407.677   690.208   406.588    80.986   863.209   268.203   303.672   663.943  3172.687   111.425    13.648     8.049     0.008    20.577    82.573     1.505     0.280 .00000E+00 0.000E+00 0.000E+00 0.000E+00 0.000E+00 0.000E+00
BIGSUB   2        0  1.0.23373E+03  1671.600   407.694   690.795   400.220    76.339   877.078   216.761   310.182   665.567  2307.173   157.009    19.212     6.444     0.009    20.705   128.898     2.041     0.279 .00000E+00 0.000E+00 0.000E+00 0.000E+00 0.000E+00 0.000E+00
BIGSUB   3        0  1.0.19996E+03  1671.600   407.630   689.905   393.544    71.938   900.916   168.407   320.166   660.918  1142.206   199.756    24.433     4.937     0.009    20.829   162.279     2.411     0.283 .00000E+00 0.000E+00 0.000E+00 0.000E+00 0.000E+00 0.000E+00
BIGSUB   4        0  1.0.10370E+03  1671.600   407.764   692.376   406.872    80.966   829.764   267.079   291.951   684.634  5179.087   111.428    13.644     8.016     0.005    20.613   116.475     2.128     0.262 .00000E+00 0.000E+00 0.000E+00 0.000E+00 0.000E+00 0.000E+00
BIGSUB   5        0  1.0.23231E+03  1671.600   407.621   689.980   406.405    80.940   864.711   268.244   304.211   663.246  3327.503   111.425    13.648     8.055     0.008    20.579    81.280     1.480     0.281 .00000E+00 0.000E+00 0.000E+00 0.000E+00 0.000E+00 0.000E+00
BIGSUB   6        0  1.0.40306E+03  1671.600   407.617   690.527   393.801    71.908   907.638   168.468   322.549   656.427  1247.580   199.851    24.448     4.940     0.009    20.843   155.270     2.306     0.286 .00000E+00 0.000E+00 0.000E+00 0.000E+00 0.000E+00 0.000E+00
BIGSUB   7        0  1.0.11014E+03  1671.600   407.613   690.765   406.819    80.915   870.034   268.434   306.076   659.526  2565.238   111.418    13.645     8.061     0.009    20.562    75.447     1.374     0.284 .00000E+00 0.000E+00 0.000E+00 0.000E+00 0.000E+00 0.000E+00
BIGSUB   8        0  1.0.18780E+03  1671.600   407.559   689.836   393.321    71.870   886.962   168.262   315.237   670.082  1446.824   199.952    24.477     4.937     0.008    20.887   176.672     2.626     0.276 .00000E+00 0.000E+00 0.000E+00 0.000E+00 0.000E+00 0.000E+00
BIGSUB   9        0  1.0.37141E+03  1671.600   407.505   689.512   405.357    80.803   843.034   267.407   296.657   678.051  3883.782   111.428    13.650     8.042     0.005    20.602   104.711     1.908     0.269 .00000E+00 0.000E+00 0.000E+00 0.000E+00 0.000E+00 0.000E+00
BIGSUB  10        0  1.0.43575E+03  1671.600   407.721   693.064   394.664    71.932   881.770   168.208   313.385   671.952  1430.411   199.961    24.480     4.930     0.008    20.889   180.505     2.688     0.273 .00000E+00 0.000E+00 0.000E+00 0.000E+00 0.000E+00 0.000E+00
BIGSUB  11        0  1.0.39979E+03  1671.600   407.672   692.654   406.812    80.875   837.172   267.241   294.569   680.171  4354.309   111.428    13.650     8.027     0.005    20.605   109.149     1.992     0.266 .00000E+00 0.000E+00 0.000E+00 0.000E+00 0.000E+00 0.000E+00
BIGSUB  12        0  1.0.11311E+03  1671.600   407.507   689.185   405.911    80.847   867.593   268.323   305.246   662.053  2899.259   111.425    13.648     8.065     0.008    20.576    78.941     1.436     0.282 .00000E+00 0.000E+00 0.000E+00 0.000E+00 0.000E+00 0.000E+00
BIGSUB  13        0  1.0.24150E+03  1671.600   407.611   691.710   394.053    71.868   884.770   168.235   314.458   670.739  1497.073   199.952    24.477     4.935     0.008    20.886   178.160     2.651     0.275 .00000E+00 0.000E+00 0.000E+00 0.000E+00 0.000E+00 0.000E+00
BIGSUB  14        0  1.0.59396E+03  1671.600   407.421   689.384   436.828   114.249   776.963   207.092   272.969   674.206  3254.103   142.141    17.412     6.095     0.005    20.202   185.620     3.138     0.231 .00000E+00 0.000E+00 0.000E+00 0.000E+00 0.000E+00 0.000E+00
BIGSUB  15        0  1.0.93955E+02  1671.600   407.515   690.215   405.586    80.789   840.973   267.328   295.934   679.128  4439.014   111.428    13.650     8.039     0.005    20.604   106.613     1.943     0.268 .00000E+00 0.000E+00 0.000E+00 0.000E+00 0.000E+00 0.000E+00
BIGSUB  16        0  1.0.38883E+03  1671.600   407.764   694.743   395.231    71.922   868.062   168.068   308.531   680.094  1620.479   199.955    24.479     4.926     0.007    20.893   193.794     2.891     0.267 .00000E+00 0.000E+00 0.000E+00 0.000E+00 0.000E+00 0.000E+00
BIGSUB  17        0  1.0.19092E+03  1671.600   407.630   692.968   394.159    71.850   834.790   167.742   296.760   702.378  2510.941   199.985    24.490     4.922     0.006    20.922   228.544     3.417     0.251 .00000E+00 0.000E+00 0.000E+00 0.000E+00 0.000E+00 0.000E+00
BIGSUB  18        0  1.0.26371E+03  1671.600   407.786   695.907   395.467    71.908   841.894   167.809   299.264   696.482  2374.908   199.972    24.485     4.919     0.006    20.912   219.999     3.291     0.254 .00000E+00 0.000E+00 0.000E+00 0.000E+00 0.000E+00 0.000E+00
BIGSUB  19        0  1.0.14902E+03  1671.600   407.757   695.286   395.156    71.900   835.981   167.752   297.172   700.557  2527.883   199.978    24.486     4.918     0.006    20.916   226.289     3.387     0.251 .00000E+00 0.000E+00 0.000E+00 0.000E+00 0.000E+00 0.000E+00
BIGSUB  20        0  1.0.17588E+03  1671.600   407.453   690.217   405.538    80.742   845.235   267.469   297.440   676.570  4216.739   111.428    13.650     8.048     0.005    20.603   102.360     1.864     0.270 .00000E+00 0.000E+00 0.000E+00 0.000E+00 0.000E+00 0.000E+00
BIGSUB  21        0  1.0.38890E+03  1671.600   407.462   691.005   405.735    80.722   840.988   267.308   295.953   679.057  4578.019   111.428    13.650     8.044     0.005    20.605   106.542     1.942     0.268 .00000E+00 0.000E+00 0.000E+00 0.000E+00 0.000E+00 0.000E+00
BIGSUB  22        0  1.0.21793E+03  1671.600   407.682   694.811   394.378    71.846   772.276   167.118   274.620   741.841  3446.667   199.999    24.499     4.905     0.004    20.957   291.465     4.377     0.221 .00000E+00 0.000E+00 0.000E+00 0.000E+00 0.000E+00 0.000E+00
BIGSUB  23        0  1.0.11865E+03  1671.600   407.420   690.194   460.852   139.161   732.499   162.317   256.981   667.732  2950.142   164.997    20.211     4.645     0.004    19.904   240.417     3.959     0.205 .00000E+00 0.000E+00 0.000E+00 0.000E+00 0.000E+00 0.000E+00
BIGSUB  24        0  1.0.22973E+03  1671.600   407.449   691.106   443.485   120.377   768.684   196.027   269.972   670.165  3719.454   147.784    18.101     5.737     0.004    20.132   195.738     3.287     0.226 .00000E+00 0.000E+00 0.000E+00 0.000E+00 0.000E+00 0.000E+00
BIGSUB  25        0  1.0.10848E+03  1671.600   407.467   691.575   405.935    80.708   839.749   267.266   295.519   679.649  4795.652   111.428    13.650     8.044     0.005    20.605   107.624     1.962     0.267 .00000E+00 0.000E+00 0.000E+00 0.000E+00 0.000E+00 0.000E+00
BIGSUB  26        0  1.0.11554E+03  1671.600   407.523   692.748   393.645    71.744   794.016   167.332   282.337   728.904  2696.422   199.996    24.498     4.917     0.004    20.949   270.355     4.048     0.231 .00000E+00 0.000E+00 0.000E+00 0.000E+00 0.000E+00 0.000E+00
BIGSUB  27        0  1.0.96617E+02  1671.600   407.470   692.097   393.284    71.711   787.135   167.263   279.904   733.673  3240.343   199.998    24.499     4.918     0.004    20.955   277.702     4.160     0.227 .00000E+00 0.000E+00 0.000E+00 0.000E+00 0.000E+00 0.000E+00
BIGSUB  28        0  1.0.98636E+02  1671.600   407.334   689.556   459.957   139.072   695.397   161.934   243.926   692.353  3930.862   164.999    20.212     4.637     0.004    19.912   278.883     4.609     0.189 .00000E+00 0.000E+00 0.000E+00 0.000E+00 0.000E+00 0.000E+00
BIGSUB  29        0  1.0.21971E+03  1671.600   407.511   692.896   393.489    71.727   773.272   167.124   274.989   742.244  3456.359   199.999    24.499     4.913     0.004    20.957   291.481     4.373     0.221 .00000E+00 0.000E+00 0.000E+00 0.000E+00 0.000E+00 0.000E+00
BIGSUB  30        0  1.0.30952E+03  1671.600   407.553   693.429   393.934    71.753   794.672   167.337   282.567   728.185  3062.858   199.997    24.499     4.916     0.004    20.953   269.394     4.034     0.231 .00000E+00 0.000E+00 0.000E+00 0.000E+00 0.000E+00 0.000E+00
BIGSUB  31        0  1.0.89857E+02  1671.600   407.410   690.754   405.449    80.679   834.530   267.127   293.702   683.444  5076.653   111.428    13.644     8.044     0.005    20.612   113.432     2.068     0.264 .00000E+00 0.000E+00 0.000E+00 0.000E+00 0.000E+00 0.000E+00
BIGSUB  32        0  1.0.17953E+03  1671.600   407.582   694.476   462.773   139.170   692.722   161.882   242.934   691.082  3674.928   164.998    20.212     4.631     0.004    19.911   278.688     4.616     0.188 .00000E+00 0.000E+00 0.000E+00 0.000E+00 0.000E+00 0.000E+00
BIGSUB  33        0  1.0.93678E+02  1671.600   407.534   693.913   462.332   139.143   686.842   161.823   240.873   695.307  4005.827   164.999    20.212     4.630     0.004    19.912   285.098     4.724     0.185 .00000E+00 0.000E+00 0.000E+00 0.000E+00 0.000E+00 0.000E+00
BIGSUB  34        0  1.0.96744E+02  1671.600   407.505   693.612   462.272   139.126   702.633   161.985   246.442   685.339  3676.651   164.998    20.212     4.636     0.004    19.910   269.224     4.453     0.192 .00000E+00 0.000E+00 0.000E+00 0.000E+00 0.000E+00 0.000E+00
BIGSUB  35        0  1.0.23249E+03  1671.600   407.226   688.443   459.233   138.987   706.062   162.044   247.708   686.399  3610.430   164.998    20.212     4.643     0.004    19.910   268.919     4.436     0.193 .00000E+00 0.000E+00 0.000E+00 0.000E+00 0.000E+00 0.000E+00
BIGSUB  36        0  1.0.31830E+03  1671.600   407.562   689.277   406.147    80.909   870.202   268.434   306.144   660.103  3163.332   111.424    13.647     8.064     0.009    20.567    75.954     1.383     0.284 .00000E+00 0.000E+00 0.000E+00 0.000E+00 0.000E+00 0.000E+00
BIGSUB  37        0  1.0.57013E+02  1671.600   407.278   688.914   459.542   139.036   699.589   161.978   245.415   690.149  3656.391   164.998    20.212     4.640     0.004    19.910   275.099     4.543     0.190 .00000E+00 0.000E+00 0.000E+00 0.000E+00 0.000E+00 0.000E+00
BIGSUB  38        0  1.0.19539E+03  1671.600   407.492   691.330   392.899    71.753   772.595   167.127   274.747   743.237  3679.953   199.999    24.471     4.913     0.004    20.985   292.720     4.391     0.221 .00000E+00 0.000E+00 0.000E+00 0.000E+00 0.000E+00 0.000E+00
BIGSUB  39        0  1.0.15918E+03  1671.600   407.538   689.159   397.187    74.870   874.056   201.429   309.646   671.772  2264.609   170.377    20.856     5.975     0.007    20.782   150.979     2.355     0.274 .00000E+00 0.000E+00 0.000E+00 0.000E+00 0.000E+00 0.000E+00
BIGSUB  40        0  1.0.17147E+03  1671.600   407.426   690.546   392.567    71.708   776.491   167.164   276.134   741.151  3417.562   199.999    24.499     4.917     0.004    20.957   289.167     4.335     0.222 .00000E+00 0.000E+00 0.000E+00 0.000E+00 0.000E+00 0.000E+00
BIGSUB  41        0  1.0.18064E+03  1671.600   407.527   688.703   405.227    80.861   847.369   267.581   298.167   675.394  4017.968   111.428    13.650     8.043     0.005    20.602   100.324     1.827     0.271 .00000E+00 0.000E+00 0.000E+00 0.000E+00 0.000E+00 0.000E+00
BIGSUB  42        0  1.0.93102E+01  1671.600   407.048   683.604   487.391   217.604   668.451   234.635   229.777   640.074  5077.242    79.625     9.740     6.551     0.008    19.994   168.578     3.410     0.198 .00000E+00 0.000E+00 0.000E+00 0.000E+00 0.000E+00 0.000E+00
BIGSUB  43        0  1.0.33275E+03  1671.600   407.242   688.391   459.179   139.016   697.617   161.960   244.728   691.795  4027.209   164.999    20.212     4.640     0.004    19.913   277.473     4.582     0.189 .00000E+00 0.000E+00 0.000E+00 0.000E+00 0.000E+00 0.000E+00
BIGSUB  44        0  1.0.12614E+03  1671.600   407.509   689.568   393.159    71.821   886.103   168.251   314.937   670.847  1506.588   199.797    24.444     4.939     0.008    20.851   177.757     2.643     0.275 .00000E+00 0.000E+00 0.000E+00 0.000E+00 0.000E+00 0.000E+00
BIGSUB  45        0  1.0.21710E+03  1671.600   407.472   689.014   405.547    80.812   859.990   268.031   302.594   667.226  3242.371   111.420    13.646     8.060     0.008    20.575    87.141     1.586     0.278 .00000E+00 0.000E+00 0.000E+00 0.000E+00 0.000E+00 0.000E+00
BIGSUB  46        0  1.0.16302E+01  1671.600   407.024   682.929   388.498    71.446   694.670   166.353   247.160   797.420  3599.533   199.999    24.499     4.914     0.004    20.959   376.130     5.673     0.186 .00000E+00 0.000E+00 0.000E+00 0.000E+00 0.000E+00 0.000E+00
BIGSUB  47        0  1.0.62083E+02  1671.600   407.315   688.477   459.724   139.091   724.874   162.245   254.316   673.807  3055.394   164.997    20.211     4.646     0.004    19.905   249.312     4.106     0.202 .00000E+00 0.000E+00 0.000E+00 0.000E+00 0.000E+00 0.000E+00
BIGSUB  48        0  1.0.13295E+03  1671.600   407.378   686.754   404.654    80.803   867.397   268.294   305.204   663.496  2442.034   111.405    13.642     8.073     0.009    20.556    80.457     1.463     0.282 .00000E+00 0.000E+00 0.000E+00 0.000E+00 0.000E+00 0.000E+00
BIGSUB  49        0  1.0.53468E+01  1671.600   407.043   683.514   456.912   138.962   748.641   162.514   262.753   661.683  2220.381   164.995    20.210     4.659     0.005    19.894   228.220     3.741     0.212 .00000E+00 0.000E+00 0.000E+00 0.000E+00 0.000E+00 0.000E+00
BIGSUB  50        0  1.0.25690E+03  1671.600   407.278   688.085   459.387   139.065   720.027   162.196   252.616   677.264  3346.336   164.998    20.212     4.645     0.004    19.908   254.571     4.193     0.199 .00000E+00 0.000E+00 0.000E+00 0.000E+00 0.000E+00 0.000E+00
BIGSUB  51        0  1.0.23941E+03  1671.600   407.591   691.680   393.389    71.848   800.356   167.409   284.572   725.015  2314.631   199.995    24.498     4.915     0.005    20.945   264.084     3.952     0.233 .00000E+00 0.000E+00 0.000E+00 0.000E+00 0.000E+00 0.000E+00
BIGSUB  52        0  1.0.16015E+03  1671.600   407.425   688.979   404.892    80.748   840.399   267.299   295.752   680.242  4817.251   111.428    13.650     8.045     0.005    20.606   107.943     1.966     0.267 .00000E+00 0.000E+00 0.000E+00 0.000E+00 0.000E+00 0.000E+00
BIGSUB  53        0  1.0.62233E+02  1671.600   407.403   687.880   404.537    80.765   845.113   267.466   297.406   677.625  4175.910   111.428    13.650     8.050     0.005    20.602   103.453     1.883     0.270 .00000E+00 0.000E+00 0.000E+00 0.000E+00 0.000E+00 0.000E+00
BIGSUB  54        0  1.0.39093E+03  1671.600   407.369   688.394   404.476    80.703   830.824   267.047   292.408   686.711  5236.345   111.428    13.644     8.043     0.005    20.613   118.113     2.152     0.262 .00000E+00 0.000E+00 0.000E+00 0.000E+00 0.000E+00 0.000E+00
BIGSUB  55        0  1.0.94321E+02  1671.600   407.412   688.993   460.228   139.196   722.446   162.225   253.438   674.720  3182.743   164.998    20.211     4.642     0.004    19.906   251.151     4.139     0.201 .00000E+00 0.000E+00 0.000E+00 0.000E+00 0.000E+00 0.000E+00
BIGSUB  56        0  1.0.92100E+02  1671.600   407.383   688.083   404.377    80.734   827.458   266.968   291.223   688.883  5487.250   111.428    13.644     8.039     0.005    20.614   121.584     2.216     0.260 .00000E+00 0.000E+00 0.000E+00 0.000E+00 0.000E+00 0.000E+00
BIGSUB  57        0  1.0.28379E+03  1671.600   407.327   687.966   459.519   139.123   721.393   162.216   253.086   676.193  3141.100   164.998    20.212     4.644     0.004    19.906   252.996     4.168     0.200 .00000E+00 0.000E+00 0.000E+00 0.000E+00 0.000E+00 0.000E+00
BIGSUB  58        0  1.0.12635E+03  1671.600   407.446   689.672   405.093    80.746   821.465   266.815   289.109   691.901  5950.830   111.428    13.645     8.031     0.004    20.615   126.936     2.316     0.257 .00000E+00 0.000E+00 0.000E+00 0.000E+00 0.000E+00 0.000E+00
BIGSUB  59        0  1.0.45554E+03  1671.600   407.308   688.064   404.108    80.645   816.951   266.682   287.557   695.838  6314.063   111.428    13.646     8.038     0.004    20.616   132.607     2.419     0.255 .00000E+00 0.000E+00 0.000E+00 0.000E+00 0.000E+00 0.000E+00
BIGSUB  60        0  1.0.21268E+02  1671.600   407.003   682.492   455.959   138.946   707.322   162.095   248.199   688.959  3139.518   164.997    20.211     4.648     0.004    19.905   270.922     4.459     0.193 .00000E+00 0.000E+00 0.000E+00 0.000E+00 0.000E+00 0.000E+00
BIGSUB  61        0  1.0.43515E+02  1671.600   407.242   687.052   458.887   139.063   726.247   162.266   254.816   673.814  2981.928   164.997    20.211     4.648     0.004    19.904   248.783     4.094     0.202 .00000E+00 0.000E+00 0.000E+00 0.000E+00 0.000E+00 0.000E+00
BIGSUB  62        0  1.0.65740E+02  1671.600   407.139   685.339   457.652   139.001   709.246   162.099   248.847   685.956  3514.351   164.998    20.212     4.645     0.004    19.909   267.247     4.403     0.194 .00000E+00 0.000E+00 0.000E+00 0.000E+00 0.000E+00 0.000E+00
BIGSUB  63        0  1.0.46618E+02  1671.600   407.034   683.672   456.456   138.937   694.269   161.952   243.594   696.775  3754.259   164.998    20.212     4.643     0.004    19.910   283.630     4.677     0.188 .00000E+00 0.000E+00 0.000E+00 0.000E+00 0.000E+00 0.000E+00
BIGSUB  64        0  1.0.31590E+03  1671.600   407.218   687.346   490.015   217.652   623.292   233.493   214.045   665.768  7158.708    80.000     9.800     6.523     0.004    20.172   211.633     4.293     0.175 .00000E+00 0.000E+00 0.000E+00 0.000E+00 0.000E+00 0.000E+00
BIGSUB  65        0  1.0.38183E+02  1671.600   407.034   683.878   456.584   138.930   698.439   161.993   245.063   693.999  3551.457   164.998    20.212     4.645     0.004    19.909   279.298     4.603     0.190 .00000E+00 0.000E+00 0.000E+00 0.000E+00 0.000E+00 0.000E+00
BIGSUB  66        0  1.0.71296E+02  1671.600   407.108   685.249   457.511   138.969   709.992   162.104   249.117   685.662  3273.447   164.998    20.212     4.646     0.004    19.907   266.669     4.392     0.195 .00000E+00 0.000E+00 0.000E+00 0.000E+00 0.000E+00 0.000E+00
BIGSUB  67        0  1.0.26423E+03  1671.600   407.148   686.263   489.140   217.609   634.559   233.667   217.987   659.624  7302.280    80.000     9.800     6.527     0.004    20.171   201.251     4.074     0.180 .00000E+00 0.000E+00 0.000E+00 0.000E+00 0.000E+00 0.000E+00
BIGSUB  68        0  1.0.42857E+02  1671.600   406.957   683.068   486.565   217.502   651.573   233.968   223.965   651.653  6440.273    79.999     9.800     6.534     0.004    20.168   186.816     3.766     0.188 .00000E+00 0.000E+00 0.000E+00 0.000E+00 0.000E+00 0.000E+00
BIGSUB  69        0  1.0.37039E+02  1671.600   406.892   681.830   485.628   217.484   662.705   234.254   227.852   645.623  5824.801    79.999     9.800     6.540     0.005    20.165   176.492     3.551     0.194 .00000E+00 0.000E+00 0.000E+00 0.000E+00 0.000E+00 0.000E+00
