1
    SWAT Dec 23 2016    VER 2016/Rev 664                                                                 0/ 0/   0      0: 0: 0

    General Input/Output section (file.cio):                                        
     Friday, January 3, 2020 12:55:29 PM VGESWAT 2012.622                           
                                                                                    


LULC  HRU       GIS  SUB  MGT  MON   AREAkm2  PRECIPmm SNOFALLmm SNOMELTmm     IRRmm     PETmm      ETmm SW_INITmm  SW_ENDmm    PERCmm GW_RCHGmm DA_RCHGmm   REVAPmm  SA_IRRmm  DA_IRRmm   SA_STmm   DA_STmmSURQ_GENmmSURQ_CNTmm   TLOSSmm LATQGENmm    GW_Qmm    WYLDmm   DAILYCN TMP_AVdgC TMP_MXdgC TMP_MNdgCSOL_TMPdgCSOLARMJ/m2  SYLDt/ha  USLEt/haN_APPkg/haP_APPkg/haNAUTOkg/haPAUTOkg/ha NGRZkg/ha PGRZkg/haNCFRTkg/haPCFRTkg/haNRAINkg/ha NFIXkg/ha F-MNkg/ha A-MNkg/ha A-SNkg/ha F-MPkg/haAO-LPkg/ha L-APkg/ha A-SPkg/ha DNITkg/ha  NUPkg/ha  PUPkg/ha ORGNkg/ha ORGPkg/ha SEDPkg/haNSURQkg/haNLATQkg/ha NO3Lkg/haNO3GWkg/ha SOLPkg/ha P_GWkg/ha    W_STRS  TMP_STRS    N_STRS    P_STRS  BIOMt/ha       LAI   YLDt/ha  BACTPct   BACTLPct WTAB CLIm WTAB SOLm     SNOmm CMUPkg/haCMTOTkg/ha   QTILEmm TNO3kg/ha LNO3kg/ha  GW_Q_Dmm LATQCNTmm TVAPkg/ha
GRAS    1 000010001    1    0    1.24816E+03     9.300     9.300     5.175     0.000    14.279     3.672    49.339    49.845     0.000     0.000     0.000     0.286     0.000     0.000   999.715  2000.000     0.730     0.730     0.000     0.000     0.000     0.730    95.864    -8.313    -2.568   -14.058    -4.026    15.532    11.040     0.000     0.000     0.000     0.000     0.000     0.000     0.000     0.000     0.000     0.129     0.000     0.000     0.199    -0.001     0.000     0.034     4.663    24.701     0.000     0.000     0.000    11.997     0.825     1.210     0.312     0.000     0.000     0.000     0.000     0.000     0.000     0.000     0.000     0.000     0.000     0.000     0.000 .00000E+00 .00000E+00 0.244E+01 0.388E+04 0.412E+01 0.000E+00 0.000E+00 0.000E+00 0.000E+00 0.000E+00     0.000     0.000     0.000
GRAS    2 000010002    1    0    1.82607E+02     9.300     9.300     5.175     0.000    14.279     3.672    49.339    49.845     0.000     0.000     0.000     0.286     0.000     0.000   999.715  2000.000     0.730     0.730     0.000     0.000     0.000     0.730    95.864    -8.313    -2.568   -14.058    -4.026    15.532     1.874     0.000     0.000     0.000     0.000     0.000     0.000     0.000     0.000     0.000     0.129     0.000     0.000     0.199    -0.001     0.000     0.034     4.646    24.694     0.000     0.000     0.000     2.008     0.215     0.315     0.312     0.000     0.000     0.000     0.000     0.000     0.000     0.000     0.000     0.000     0.000     0.000     0.000 .00000E+00 .00000E+00 0.244E+01 0.388E+04 0.412E+01 0.000E+00 0.000E+00 0.000E+00 0.000E+00 0.000E+00     0.000     0.000     0.000
GRAS    3 000020001    2    0    1.70097E+02     9.300     9.300     5.175     0.000    14.243     3.664    49.341    49.854     0.000     0.000     0.000     0.285     0.000     0.000   999.715  2000.000     0.730     0.731     0.000     0.000     0.000     0.731    95.864    -8.313    -2.568   -14.058    -4.026    15.532    11.610     0.000     0.000     0.000     0.000     0.000     0.000     0.000     0.000     0.000     0.129     0.000     0.000     0.199    -0.001     0.000     0.034     4.664    24.701     0.000     0.000     0.000    12.440     0.848     1.243     0.312     0.000     0.000     0.000     0.000     0.000     0.000     0.000     0.000     0.000     0.000     0.000     0.000 .00000E+00 .00000E+00 0.244E+01 0.388E+04 0.412E+01 0.000E+00 0.000E+00 0.000E+00 0.000E+00 0.000E+00     0.000     0.000     0.000
GRAS    4 000020002    2    0    1.43034E+02     9.300     9.300     5.175     0.000    14.243     3.664    49.341    49.854     0.000     0.000     0.000     0.285     0.000     0.000   999.715  2000.000     0.730     0.731     0.000     0.000     0.000     0.731    95.864    -8.313    -2.568   -14.058    -4.026    15.532     1.965     0.000     0.000     0.000     0.000     0.000     0.000     0.000     0.000     0.000     0.129     0.000     0.000     0.199    -0.001     0.000     0.034     4.646    24.694     0.000     0.000     0.000     2.106     0.223     0.326     0.312     0.000     0.000     0.000     0.000     0.000     0.000     0.000     0.000     0.000     0.000     0.000     0.000 .00000E+00 .00000E+00 0.244E+01 0.388E+04 0.412E+01 0.000E+00 0.000E+00 0.000E+00 0.000E+00 0.000E+00     0.000     0.000     0.000
GRAS    5 000020003    2    0    1.50724E+02     9.300     9.300     5.175     0.000    14.243     3.610    44.088    44.912     0.000     0.000     0.000     0.285     0.000     0.000   999.715  2000.000     0.274     0.274     0.000     0.000     0.000     0.274    94.242    -8.313    -2.568   -14.058    -2.533    15.532     0.494     0.000     0.000     0.000     0.000     0.000     0.000     0.000     0.000     0.000     0.129     0.000     0.000     0.589    -0.004     0.000     0.101     2.006    12.699     0.000     0.000     0.000     1.235     0.144     0.121     0.092     0.000     0.000     0.000     0.000     0.000     0.000     0.000     0.000     0.000     0.000     0.000     0.000 .00000E+00 .00000E+00 0.244E+01 0.404E+04 0.412E+01 0.000E+00 0.000E+00 0.000E+00 0.000E+00 0.000E+00     0.000     0.000     0.000
GRAS    6 000020004    2    0    1.69873E+02     9.300     9.300     5.175     0.000    14.243     3.610    44.088    44.912     0.000     0.000     0.000     0.285     0.000     0.000   999.715  2000.000     0.274     0.274     0.000     0.000     0.000     0.274    94.242    -8.313    -2.568   -14.058    -2.533    15.532     4.017     0.000     0.000     0.000     0.000     0.000     0.000     0.000     0.000     0.000     0.129     0.000     0.000     0.589    -0.004     0.000     0.101     2.013    12.703     0.000     0.000     0.000    10.042     0.698     0.585     0.092     0.000     0.000     0.000     0.000     0.000     0.000     0.000     0.000     0.000     0.000     0.000     0.000 .00000E+00 .00000E+00 0.244E+01 0.404E+04 0.412E+01 0.000E+00 0.000E+00 0.000E+00 0.000E+00 0.000E+00     0.000     0.000     0.000
GRAS    7 000030001    3    0    1.12498E+03     9.300     9.300     5.175     0.000    14.422     3.650    44.075    44.872     0.000     0.000     0.000     0.288     0.000     0.000   999.712  2000.000     0.274     0.274     0.000     0.000     0.000     0.274    94.241    -8.313    -2.568   -14.058    -2.532    15.532     2.346     0.000     0.000     0.000     0.000     0.000     0.000     0.000     0.000     0.000     0.129     0.000     0.000     0.589    -0.004     0.000     0.101     2.010    12.701     0.000     0.000     0.000     6.018     0.475     0.398     0.092     0.000     0.000     0.000     0.000     0.000     0.000     0.000     0.000     0.000     0.000     0.000     0.000 .00000E+00 .00000E+00 0.244E+01 0.404E+04 0.412E+01 0.000E+00 0.000E+00 0.000E+00 0.000E+00 0.000E+00     0.000     0.000     0.000
GRAS    8 000030002    3    0    1.74981E+02     9.300     9.300     5.175     0.000    14.422     3.650    44.075    44.872     0.000     0.000     0.000     0.288     0.000     0.000   999.712  2000.000     0.274     0.274     0.000     0.000     0.000     0.274    94.241    -8.313    -2.568   -14.058    -2.532    15.532     0.484     0.000     0.000     0.000     0.000     0.000     0.000     0.000     0.000     0.000     0.129     0.000     0.000     0.589    -0.004     0.000     0.101     2.006    12.699     0.000     0.000     0.000     1.217     0.142     0.119     0.092     0.000     0.000     0.000     0.000     0.000     0.000     0.000     0.000     0.000     0.000     0.000     0.000 .00000E+00 .00000E+00 0.244E+01 0.404E+04 0.412E+01 0.000E+00 0.000E+00 0.000E+00 0.000E+00 0.000E+00     0.000     0.000     0.000
GRAS    9 000040001    4    0    1.10370E+03     9.300     9.300     5.175     0.000    14.078     3.625    49.352    49.892     0.000     0.000     0.000     0.282     0.000     0.000   999.719  2000.000     0.731     0.731     0.000     0.000     0.000     0.731    95.864    -8.313    -2.568   -14.058    -4.027    15.532    14.333     0.000     0.000     0.000     0.000     0.000     0.000     0.000     0.000     0.000     0.129     0.000     0.000     0.199    -0.001     0.000     0.034     4.669    24.704     0.000     0.000     0.000    15.389     0.996     1.459     0.311     0.000     0.000     0.000     0.000     0.000     0.000     0.000     0.000     0.000     0.000     0.000     0.000 .00000E+00 .00000E+00 0.244E+01 0.388E+04 0.412E+01 0.000E+00 0.000E+00 0.000E+00 0.000E+00 0.000E+00     0.000     0.000     0.000
GRAS   10 000050001    5    0    1.17679E+03     9.300     9.300     5.175     0.000    14.454     3.711    49.326    49.806     0.000     0.000     0.000     0.289     0.000     0.000   999.711  2000.000     0.730     0.730     0.000     0.000     0.000     0.730    95.863    -8.313    -2.568   -14.058    -4.026    15.532    11.461     0.000     0.000     0.000     0.000     0.000     0.000     0.000     0.000     0.000     0.129     0.000     0.000     0.199    -0.001     0.000     0.034     4.663    24.700     0.000     0.000     0.000    12.303     0.841     1.233     0.312     0.000     0.000     0.000     0.000     0.000     0.000     0.000     0.000     0.000     0.000     0.000     0.000 .00000E+00 .00000E+00 0.244E+01 0.388E+04 0.412E+01 0.000E+00 0.000E+00 0.000E+00 0.000E+00 0.000E+00     0.000     0.000     0.000
GRAS   11 000050002    5    0    1.55524E+02     9.300     9.300     5.175     0.000    14.454     3.711    49.326    49.806     0.000     0.000     0.000     0.289     0.000     0.000   999.711  2000.000     0.730     0.730     0.000     0.000     0.000     0.730    95.863    -8.313    -2.568   -14.058    -4.026    15.532     1.894     0.000     0.000     0.000     0.000     0.000     0.000     0.000     0.000     0.000     0.129     0.000     0.000     0.199    -0.001     0.000     0.034     4.645    24.692     0.000     0.000     0.000     2.030     0.216     0.317     0.312     0.000     0.000     0.000     0.000     0.000     0.000     0.000     0.000     0.000     0.000     0.000     0.000 .00000E+00 .00000E+00 0.244E+01 0.388E+04 0.412E+01 0.000E+00 0.000E+00 0.000E+00 0.000E+00 0.000E+00     0.000     0.000     0.000
GRAS   12 000060001    6    0    1.17554E+03     9.300     9.300     5.175     0.000    14.482     3.663    44.071    44.859     0.000     0.000     0.000     0.290     0.000     0.000   999.710  2000.000     0.274     0.274     0.000     0.000     0.000     0.274    94.240    -8.313    -2.568   -14.058    -2.532    15.532     0.531     0.000     0.000     0.000     0.000     0.000     0.000     0.000     0.000     0.000     0.129     0.000     0.000     0.589    -0.004     0.000     0.101     2.006    12.699     0.000     0.000     0.000     1.335     0.153     0.128     0.092     0.000     0.000     0.000     0.000     0.000     0.000     0.000     0.000     0.000     0.000     0.000     0.000 .00000E+00 .00000E+00 0.244E+01 0.404E+04 0.412E+01 0.000E+00 0.000E+00 0.000E+00 0.000E+00 0.000E+00     0.000     0.000     0.000
GRAS   13 000060002    6    0    1.22752E+03     9.300     9.300     5.175     0.000    14.482     3.663    44.071    44.859     0.000     0.000     0.000     0.290     0.000     0.000   999.710  2000.000     0.274     0.274     0.000     0.000     0.000     0.274    94.240    -8.313    -2.568   -14.058    -2.532    15.532     2.783     0.000     0.000     0.000     0.000     0.000     0.000     0.000     0.000     0.000     0.129     0.000     0.000     0.589    -0.004     0.000     0.101     2.011    12.702     0.000     0.000     0.000     7.039     0.534     0.447     0.092     0.000     0.000     0.000     0.000     0.000     0.000     0.000     0.000     0.000     0.000     0.000     0.000 .00000E+00 .00000E+00 0.244E+01 0.404E+04 0.412E+01 0.000E+00 0.000E+00 0.000E+00 0.000E+00 0.000E+00     0.000     0.000     0.000
GRAS   14 000070001    7    0    1.78136E+02     9.300     9.300     5.175     0.000    14.502     3.721    49.322    49.796     0.000     0.000     0.000     0.290     0.000     0.000   999.710  2000.000     0.730     0.730     0.000     0.000     0.000     0.730    95.863    -8.313    -2.568   -14.058    -4.025    15.532     9.289     0.000     0.000     0.000     0.000     0.000     0.000     0.000     0.000     0.000     0.129     0.000     0.000     0.199    -0.001     0.000     0.034     4.659    24.698     0.000     0.000     0.000    10.010     0.720     1.055     0.313     0.000     0.000     0.000     0.000     0.000     0.000     0.000     0.000     0.000     0.000     0.000     0.000 .00000E+00 .00000E+00 0.244E+01 0.388E+04 0.412E+01 0.000E+00 0.000E+00 0.000E+00 0.000E+00 0.000E+00     0.000     0.000     0.000
GRAS   15 000070002    7    0    1.32002E+02     9.300     9.300     5.175     0.000    14.502     3.721    49.322    49.796     0.000     0.000     0.000     0.290     0.000     0.000   999.710  2000.000     0.730     0.730     0.000     0.000     0.000     0.730    95.863    -8.313    -2.568   -14.058    -4.025    15.532     1.663     0.000     0.000     0.000     0.000     0.000     0.000     0.000     0.000     0.000     0.129     0.000     0.000     0.199    -0.001     0.000     0.034     4.644    24.691     0.000     0.000     0.000     1.782     0.196     0.288     0.313     0.000     0.000     0.000     0.000     0.000     0.000     0.000     0.000     0.000     0.000     0.000     0.000 .00000E+00 .00000E+00 0.244E+01 0.388E+04 0.412E+01 0.000E+00 0.000E+00 0.000E+00 0.000E+00 0.000E+00     0.000     0.000     0.000
GRAS   16 000080001    8    0    1.13001E+03     9.300     9.300     5.175     0.000    14.654     3.701    44.059    44.821     0.000     0.000     0.000     0.293     0.000     0.000   999.707  2000.000     0.273     0.274     0.000     0.000     0.000     0.274    94.240    -8.313    -2.568   -14.058    -2.531    15.532     2.755     0.000     0.000     0.000     0.000     0.000     0.000     0.000     0.000     0.000     0.129     0.000     0.000     0.589    -0.004     0.000     0.101     2.011    12.701     0.000     0.000     0.000     6.944     0.529     0.443     0.092     0.000     0.000     0.000     0.000     0.000     0.000     0.000     0.000     0.000     0.000     0.000     0.000 .00000E+00 .00000E+00 0.244E+01 0.404E+04 0.412E+01 0.000E+00 0.000E+00 0.000E+00 0.000E+00 0.000E+00     0.000     0.000     0.000
GRAS   17 000080002    8    0    1.57791E+02     9.300     9.300     5.175     0.000    14.654     3.701    44.059    44.821     0.000     0.000     0.000     0.293     0.000     0.000   999.707  2000.000     0.273     0.274     0.000     0.000     0.000     0.274    94.240    -8.313    -2.568   -14.058    -2.531    15.532     0.593     0.000     0.000     0.000     0.000     0.000     0.000     0.000     0.000     0.000     0.129     0.000     0.000     0.589    -0.004     0.000     0.101     2.006    12.699     0.000     0.000     0.000     1.482     0.165     0.138     0.092     0.000     0.000     0.000     0.000     0.000     0.000     0.000     0.000     0.000     0.000     0.000     0.000 .00000E+00 .00000E+00 0.244E+01 0.404E+04 0.412E+01 0.000E+00 0.000E+00 0.000E+00 0.000E+00 0.000E+00     0.000     0.000     0.000
GRAS   18 000090001    9    0    1.37141E+03     9.300     9.300     5.175     0.000    14.820     3.794    49.300    49.724     0.000     0.000     0.000     0.296     0.000     0.000   999.704  2000.000     0.730     0.730     0.000     0.000     0.000     0.730    95.862    -8.313    -2.568   -14.058    -4.024    15.532    10.612     0.000     0.000     0.000     0.000     0.000     0.000     0.000     0.000     0.000     0.129     0.000     0.000     0.199    -0.001     0.000     0.034     4.661    24.696     0.000     0.000     0.000    11.944     0.822     1.205     0.313     0.000     0.000     0.000     0.000     0.000     0.000     0.000     0.000     0.000     0.000     0.000     0.000 .00000E+00 .00000E+00 0.244E+01 0.388E+04 0.412E+01 0.000E+00 0.000E+00 0.000E+00 0.000E+00 0.000E+00     0.000     0.000     0.000
GRAS   19 000100001   10    0    1.29200E+03     9.300     9.300     5.175     0.000    14.223     3.603    44.087    44.918     0.000     0.000     0.000     0.284     0.000     0.000   999.715  2000.000     0.274     0.274     0.000     0.000     0.000     0.274    94.242    -8.313    -2.568   -14.058    -2.533    15.532     2.774     0.000     0.000     0.000     0.000     0.000     0.000     0.000     0.000     0.000     0.129     0.000     0.000     0.589    -0.004     0.000     0.101     2.011    12.702     0.000     0.000     0.000     7.202     0.544     0.455     0.092     0.000     0.000     0.000     0.000     0.000     0.000     0.000     0.000     0.000     0.000     0.000     0.000 .00000E+00 .00000E+00 0.244E+01 0.404E+04 0.412E+01 0.000E+00 0.000E+00 0.000E+00 0.000E+00 0.000E+00     0.000     0.000     0.000
GRAS   20 000100002   10    0    1.14375E+03     9.300     9.300     5.175     0.000    14.223     3.603    44.087    44.918     0.000     0.000     0.000     0.284     0.000     0.000   999.715  2000.000     0.274     0.274     0.000     0.000     0.000     0.274    94.242    -8.313    -2.568   -14.058    -2.533    15.532     0.615     0.000     0.000     0.000     0.000     0.000     0.000     0.000     0.000     0.000     0.129     0.000     0.000     0.589    -0.004     0.000     0.101     2.006    12.699     0.000     0.000     0.000     1.545     0.171     0.143     0.092     0.000     0.000     0.000     0.000     0.000     0.000     0.000     0.000     0.000     0.000     0.000     0.000 .00000E+00 .00000E+00 0.244E+01 0.404E+04 0.412E+01 0.000E+00 0.000E+00 0.000E+00 0.000E+00 0.000E+00     0.000     0.000     0.000
GRAS   21 000110001   11    0    1.39979E+03     9.300     9.300     5.175     0.000    14.362     3.689    49.331    49.829     0.000     0.000     0.000     0.287     0.000     0.000   999.713  2000.000     0.730     0.730     0.000     0.000     0.000     0.730    95.863    -8.313    -2.568   -14.058    -4.026    15.532    11.954     0.000     0.000     0.000     0.000     0.000     0.000     0.000     0.000     0.000     0.129     0.000     0.000     0.199    -0.001     0.000     0.034     4.665    24.700     0.000     0.000     0.000    13.313     0.893     1.308     0.312     0.000     0.000     0.000     0.000     0.000     0.000     0.000     0.000     0.000     0.000     0.000     0.000 .00000E+00 .00000E+00 0.244E+01 0.388E+04 0.412E+01 0.000E+00 0.000E+00 0.000E+00 0.000E+00 0.000E+00     0.000     0.000     0.000
GRAS   22 000120001   12    0    1.84986E+02     9.300     9.300     5.175     0.000    14.804     3.790    49.301    49.728     0.000     0.000     0.000     0.296     0.000     0.000   999.704  2000.000     0.730     0.730     0.000     0.000     0.000     0.730    95.862    -8.313    -2.568   -14.058    -4.024    15.532     9.984     0.000     0.000     0.000     0.000     0.000     0.000     0.000     0.000     0.000     0.129     0.000     0.000     0.199    -0.001     0.000     0.034     4.660    24.696     0.000     0.000     0.000    10.716     0.758     1.111     0.313     0.000     0.000     0.000     0.000     0.000     0.000     0.000     0.000     0.000     0.000     0.000     0.000 .00000E+00 .00000E+00 0.244E+01 0.388E+04 0.412E+01 0.000E+00 0.000E+00 0.000E+00 0.000E+00 0.000E+00     0.000     0.000     0.000
GRAS   23 000120002   12    0    1.28128E+02     9.300     9.300     5.175     0.000    14.804     3.790    49.301    49.728     0.000     0.000     0.000     0.296     0.000     0.000   999.704  2000.000     0.730     0.730     0.000     0.000     0.000     0.730    95.862    -8.313    -2.568   -14.058    -4.024    15.532     1.940     0.000     0.000     0.000     0.000     0.000     0.000     0.000     0.000     0.000     0.129     0.000     0.000     0.199    -0.001     0.000     0.034     4.644    24.689     0.000     0.000     0.000     2.079     0.220     0.323     0.313     0.000     0.000     0.000     0.000     0.000     0.000     0.000     0.000     0.000     0.000     0.000     0.000 .00000E+00 .00000E+00 0.244E+01 0.388E+04 0.412E+01 0.000E+00 0.000E+00 0.000E+00 0.000E+00 0.000E+00     0.000     0.000     0.000
GRAS   24 000130001   13    0    1.80279E+02     9.300     9.300     5.175     0.000    14.534     3.673    44.066    44.848     0.000     0.000     0.000     0.291     0.000     0.000   999.709  2000.000     0.274     0.274     0.000     0.000     0.000     0.274    94.240    -8.313    -2.568   -14.058    -2.531    15.532     0.598     0.000     0.000     0.000     0.000     0.000     0.000     0.000     0.000     0.000     0.129     0.000     0.000     0.589    -0.004     0.000     0.101     2.006    12.699     0.000     0.000     0.000     1.497     0.166     0.139     0.092     0.000     0.000     0.000     0.000     0.000     0.000     0.000     0.000     0.000     0.000     0.000     0.000 .00000E+00 .00000E+00 0.244E+01 0.404E+04 0.412E+01 0.000E+00 0.000E+00 0.000E+00 0.000E+00 0.000E+00     0.000     0.000     0.000
GRAS   25 000130002   13    0    1.16122E+03     9.300     9.300     5.175     0.000    14.534     3.673    44.066    44.848     0.000     0.000     0.000     0.291     0.000     0.000   999.709  2000.000     0.274     0.274     0.000     0.000     0.000     0.274    94.240    -8.313    -2.568   -14.058    -2.531    15.532     2.943     0.000     0.000     0.000     0.000     0.000     0.000     0.000     0.000     0.000     0.129     0.000     0.000     0.589    -0.004     0.000     0.101     2.011    12.702     0.000     0.000     0.000     7.434     0.557     0.466     0.092     0.000     0.000     0.000     0.000     0.000     0.000     0.000     0.000     0.000     0.000     0.000     0.000 .00000E+00 .00000E+00 0.244E+01 0.404E+04 0.412E+01 0.000E+00 0.000E+00 0.000E+00 0.000E+00 0.000E+00     0.000     0.000     0.000
GRAS   26 000140001   14    0    1.25342E+03     9.300     9.300     5.175     0.000    15.096     3.854    49.279    49.664     0.000     0.000     0.000     0.302     0.000     0.000   999.698  2000.000     0.729     0.729     0.000     0.000     0.000     0.729    95.861    -8.313    -2.568   -14.058    -4.023    15.532    11.862     0.000     0.000     0.000     0.000     0.000     0.000     0.000     0.000     0.000     0.129     0.000     0.000     0.199    -0.001     0.000     0.034     4.662    24.694     0.000     0.000     0.000    13.038     0.878     1.287     0.314     0.000     0.000     0.000     0.000     0.000     0.000     0.000     0.000     0.000     0.000     0.000     0.000 .00000E+00 .00000E+00 0.244E+01 0.388E+04 0.412E+01 0.000E+00 0.000E+00 0.000E+00 0.000E+00 0.000E+00     0.000     0.000     0.000
GRAS   27 000140002   14    0    1.34054E+03     9.300     9.300     5.175     0.000    15.096     3.919    82.185    82.941     0.000     0.000     0.000     0.302     0.000     0.000   999.698  2000.000     0.103     0.103     0.000     0.000     0.000     0.103    93.422    -8.313    -2.568   -14.058    -4.626    15.532     1.225     0.000     0.000     0.000     0.000     0.000     0.000     0.000     0.000     0.000     0.129     0.000     0.000     0.252    -0.002     0.000     0.043     3.564    19.922     0.000     0.000     0.000     2.430     0.175     0.169     0.036     0.000     0.000     0.000     0.000     0.000     0.000     0.000     0.000     0.000     0.000     0.000     0.000 .00000E+00 .00000E+00 0.244E+01 0.404E+04 0.412E+01 0.000E+00 0.000E+00 0.000E+00 0.000E+00 0.000E+00     0.000     0.000     0.000
GRAS   28 000150001   15    0    1.93955E+02     9.300     9.300     5.175     0.000    14.805     3.790    49.300    49.728     0.000     0.000     0.000     0.296     0.000     0.000   999.704  2000.000     0.730     0.730     0.000     0.000     0.000     0.730    95.862    -8.313    -2.568   -14.058    -4.024    15.532    12.256     0.000     0.000     0.000     0.000     0.000     0.000     0.000     0.000     0.000     0.129     0.000     0.000     0.199    -0.001     0.000     0.034     4.663    24.697     0.000     0.000     0.000    13.166     0.885     1.297     0.313     0.000     0.000     0.000     0.000     0.000     0.000     0.000     0.000     0.000     0.000     0.000     0.000 .00000E+00 .00000E+00 0.244E+01 0.388E+04 0.412E+01 0.000E+00 0.000E+00 0.000E+00 0.000E+00 0.000E+00     0.000     0.000     0.000
GRAS   29 000160001   16    0    1.11652E+03     9.300     9.300     5.175     0.000    14.138     3.584    44.092    44.938     0.000     0.000     0.000     0.283     0.000     0.000   999.717  2000.000     0.274     0.274     0.000     0.000     0.000     0.274    94.242    -8.313    -2.568   -14.058    -2.533    15.532     0.597     0.000     0.000     0.000     0.000     0.000     0.000     0.000     0.000     0.000     0.129     0.000     0.000     0.589    -0.004     0.000     0.101     2.006    12.699     0.000     0.000     0.000     1.496     0.166     0.139     0.092     0.000     0.000     0.000     0.000     0.000     0.000     0.000     0.000     0.000     0.000     0.000     0.000 .00000E+00 .00000E+00 0.244E+01 0.404E+04 0.412E+01 0.000E+00 0.000E+00 0.000E+00 0.000E+00 0.000E+00     0.000     0.000     0.000
GRAS   30 000160002   16    0    1.27231E+03     9.300     9.300     5.175     0.000    14.138     3.584    44.092    44.938     0.000     0.000     0.000     0.283     0.000     0.000   999.717  2000.000     0.274     0.274     0.000     0.000     0.000     0.274    94.242    -8.313    -2.568   -14.058    -2.533    15.532     3.084     0.000     0.000     0.000     0.000     0.000     0.000     0.000     0.000     0.000     0.129     0.000     0.000     0.589    -0.004     0.000     0.101     2.012    12.702     0.000     0.000     0.000     7.990     0.588     0.492     0.092     0.000     0.000     0.000     0.000     0.000     0.000     0.000     0.000     0.000     0.000     0.000     0.000 .00000E+00 .00000E+00 0.244E+01 0.404E+04 0.412E+01 0.000E+00 0.000E+00 0.000E+00 0.000E+00 0.000E+00     0.000     0.000     0.000
GRAS   31 000170001   17    0    1.15026E+03     9.300     9.300     5.175     0.000    14.507     3.666    44.066    44.855     0.000     0.000     0.000     0.290     0.000     0.000   999.710  2000.000     0.274     0.274     0.000     0.000     0.000     0.274    94.240    -8.313    -2.568   -14.058    -2.531    15.532     4.438     0.000     0.000     0.000     0.000     0.000     0.000     0.000     0.000     0.000     0.129     0.000     0.000     0.589    -0.004     0.000     0.101     2.014    12.703     0.000     0.000     0.000    11.105     0.753     0.631     0.092     0.000     0.000     0.000     0.000     0.000     0.000     0.000     0.000     0.000     0.000     0.000     0.000 .00000E+00 .00000E+00 0.244E+01 0.404E+04 0.412E+01 0.000E+00 0.000E+00 0.000E+00 0.000E+00 0.000E+00     0.000     0.000     0.000
GRAS   32 000170002   17    0    1.40653E+02     9.300     9.300     5.175     0.000    14.507     3.666    44.066    44.855     0.000     0.000     0.000     0.290     0.000     0.000   999.710  2000.000     0.274     0.274     0.000     0.000     0.000     0.274    94.240    -8.313    -2.568   -14.058    -2.531    15.532     0.644     0.000     0.000     0.000     0.000     0.000     0.000     0.000     0.000     0.000     0.129     0.000     0.000     0.589    -0.004     0.000     0.101     2.006    12.699     0.000     0.000     0.000     1.610     0.176     0.147     0.092     0.000     0.000     0.000     0.000     0.000     0.000     0.000     0.000     0.000     0.000     0.000     0.000 .00000E+00 .00000E+00 0.244E+01 0.404E+04 0.412E+01 0.000E+00 0.000E+00 0.000E+00 0.000E+00 0.000E+00     0.000     0.000     0.000
GRAS   33 000180001   18    0    1.62895E+02     9.300     9.300     5.175     0.000    14.103     3.575    44.093    44.946     0.000     0.000     0.000     0.282     0.000     0.000   999.718  2000.000     0.274     0.274     0.000     0.000     0.000     0.274    94.242    -8.313    -2.568   -14.058    -2.533    15.532     0.607     0.000     0.000     0.000     0.000     0.000     0.000     0.000     0.000     0.000     0.129     0.000     0.000     0.589    -0.004     0.000     0.101     2.006    12.699     0.000     0.000     0.000     1.517     0.168     0.141     0.092     0.000     0.000     0.000     0.000     0.000     0.000     0.000     0.000     0.000     0.000     0.000     0.000 .00000E+00 .00000E+00 0.244E+01 0.404E+04 0.412E+01 0.000E+00 0.000E+00 0.000E+00 0.000E+00 0.000E+00     0.000     0.000     0.000
GRAS   34 000180002   18    0    1.20081E+03     9.300     9.300     5.175     0.000    14.103     3.575    44.093    44.946     0.000     0.000     0.000     0.282     0.000     0.000   999.718  2000.000     0.274     0.274     0.000     0.000     0.000     0.274    94.242    -8.313    -2.568   -14.058    -2.533    15.532     4.330     0.000     0.000     0.000     0.000     0.000     0.000     0.000     0.000     0.000     0.129     0.000     0.000     0.589    -0.004     0.000     0.101     2.014    12.703     0.000     0.000     0.000    10.855     0.741     0.620     0.092     0.000     0.000     0.000     0.000     0.000     0.000     0.000     0.000     0.000     0.000     0.000     0.000 .00000E+00 .00000E+00 0.244E+01 0.404E+04 0.412E+01 0.000E+00 0.000E+00 0.000E+00 0.000E+00 0.000E+00     0.000     0.000     0.000
GRAS   35 000190001   19    0    1.11332E+03     9.300     9.300     5.175     0.000    14.173     3.591    44.089    44.931     0.000     0.000     0.000     0.283     0.000     0.000   999.717  2000.000     0.274     0.274     0.000     0.000     0.000     0.274    94.242    -8.313    -2.568   -14.058    -2.533    15.532     4.604     0.000     0.000     0.000     0.000     0.000     0.000     0.000     0.000     0.000     0.129     0.000     0.000     0.589    -0.004     0.000     0.101     2.014    12.704     0.000     0.000     0.000    11.512     0.774     0.648     0.092     0.000     0.000     0.000     0.000     0.000     0.000     0.000     0.000     0.000     0.000     0.000     0.000 .00000E+00 .00000E+00 0.244E+01 0.404E+04 0.412E+01 0.000E+00 0.000E+00 0.000E+00 0.000E+00 0.000E+00     0.000     0.000     0.000
GRAS   36 000190002   19    0    1.35694E+02     9.300     9.300     5.175     0.000    14.173     3.591    44.089    44.931     0.000     0.000     0.000     0.283     0.000     0.000   999.717  2000.000     0.274     0.274     0.000     0.000     0.000     0.274    94.242    -8.313    -2.568   -14.058    -2.533    15.532     0.622     0.000     0.000     0.000     0.000     0.000     0.000     0.000     0.000     0.000     0.129     0.000     0.000     0.589    -0.004     0.000     0.101     2.006    12.699     0.000     0.000     0.000     1.556     0.171     0.144     0.092     0.000     0.000     0.000     0.000     0.000     0.000     0.000     0.000     0.000     0.000     0.000     0.000 .00000E+00 .00000E+00 0.244E+01 0.404E+04 0.412E+01 0.000E+00 0.000E+00 0.000E+00 0.000E+00 0.000E+00     0.000     0.000     0.000
GRAS   37 000200001   20    0    1.17588E+03     9.300     9.300     5.175     0.000    15.009     3.835    49.285    49.684     0.000     0.000     0.000     0.300     0.000     0.000   999.700  2000.000     0.729     0.729     0.000     0.000     0.000     0.729    95.861    -8.313    -2.568   -14.058    -4.024    15.532    11.633     0.000     0.000     0.000     0.000     0.000     0.000     0.000     0.000     0.000     0.129     0.000     0.000     0.199    -0.001     0.000     0.034     4.661    24.695     0.000     0.000     0.000    12.567     0.854     1.252     0.314     0.000     0.000     0.000     0.000     0.000     0.000     0.000     0.000     0.000     0.000     0.000     0.000 .00000E+00 .00000E+00 0.244E+01 0.388E+04 0.412E+01 0.000E+00 0.000E+00 0.000E+00 0.000E+00 0.000E+00     0.000     0.000     0.000
GRAS   38 000210001   21    0    1.38890E+03     9.300     9.300     5.175     0.000    15.000     3.832    49.285    49.686     0.000     0.000     0.000     0.300     0.000     0.000   999.700  2000.000     0.729     0.729     0.000     0.000     0.000     0.729    95.861    -8.313    -2.568   -14.058    -4.024    15.532    12.611     0.000     0.000     0.000     0.000     0.000     0.000     0.000     0.000     0.000     0.129     0.000     0.000     0.199    -0.001     0.000     0.034     4.663    24.695     0.000     0.000     0.000    13.776     0.916     1.342     0.314     0.000     0.000     0.000     0.000     0.000     0.000     0.000     0.000     0.000     0.000     0.000     0.000 .00000E+00 .00000E+00 0.244E+01 0.388E+04 0.412E+01 0.000E+00 0.000E+00 0.000E+00 0.000E+00 0.000E+00     0.000     0.000     0.000
GRAS   39 000220001   22    0    1.21793E+03     9.300     9.300     5.175     0.000    14.387     3.639    44.073    44.883     0.000     0.000     0.000     0.288     0.000     0.000   999.712  2000.000     0.274     0.274     0.000     0.000     0.000     0.274    94.241    -8.313    -2.568   -14.058    -2.532    15.532     5.003     0.000     0.000     0.000     0.000     0.000     0.000     0.000     0.000     0.000     0.129     0.000     0.000     0.589    -0.004     0.000     0.101     2.015    12.704     0.000     0.000     0.000    12.582     0.827     0.693     0.092     0.000     0.000     0.000     0.000     0.000     0.000     0.000     0.000     0.000     0.000     0.000     0.000 .00000E+00 .00000E+00 0.244E+01 0.404E+04 0.412E+01 0.000E+00 0.000E+00 0.000E+00 0.000E+00 0.000E+00     0.000     0.000     0.000
GRAS   40 000230001   23    0    1.11865E+03     9.300     9.300     5.175     0.000    15.125     3.925    82.182    82.935     0.000     0.000     0.000     0.303     0.000     0.000   999.698  2000.000     0.103     0.103     0.000     0.000     0.000     0.103    93.422    -8.313    -2.568   -14.058    -4.626    15.532     1.479     0.000     0.000     0.000     0.000     0.000     0.000     0.000     0.000     0.000     0.129     0.000     0.000     0.252    -0.002     0.000     0.043     3.564    19.922     0.000     0.000     0.000     2.778     0.194     0.186     0.036     0.000     0.000     0.000     0.000     0.000     0.000     0.000     0.000     0.000     0.000     0.000     0.000 .00000E+00 .00000E+00 0.244E+01 0.404E+04 0.412E+01 0.000E+00 0.000E+00 0.000E+00 0.000E+00 0.000E+00     0.000     0.000     0.000
GRAS   41 000240001   24    0    1.15591E+03     9.300     9.300     5.175     0.000    15.049     3.908    82.187    82.952     0.000     0.000     0.000     0.301     0.000     0.000   999.699  2000.000     0.103     0.103     0.000     0.000     0.000     0.103    93.422    -8.313    -2.568   -14.058    -4.626    15.532     1.473     0.000     0.000     0.000     0.000     0.000     0.000     0.000     0.000     0.000     0.129     0.000     0.000     0.252    -0.002     0.000     0.043     3.564    19.923     0.000     0.000     0.000     2.766     0.193     0.186     0.036     0.000     0.000     0.000     0.000     0.000     0.000     0.000     0.000     0.000     0.000     0.000     0.000 .00000E+00 .00000E+00 0.244E+01 0.404E+04 0.412E+01 0.000E+00 0.000E+00 0.000E+00 0.000E+00 0.000E+00     0.000     0.000     0.000
GRAS   42 000240002   24    0    1.73818E+02     9.300     9.300     5.175     0.000    15.049     3.843    49.281    49.676     0.000     0.000     0.000     0.301     0.000     0.000   999.699  2000.000     0.729     0.729     0.000     0.000     0.000     0.729    95.861    -8.313    -2.568   -14.058    -4.023    15.532    14.744     0.000     0.000     0.000     0.000     0.000     0.000     0.000     0.000     0.000     0.129     0.000     0.000     0.199    -0.001     0.000     0.034     4.666    24.696     0.000     0.000     0.000    15.797     1.015     1.487     0.314     0.000     0.000     0.000     0.000     0.000     0.000     0.000     0.000     0.000     0.000     0.000     0.000 .00000E+00 .00000E+00 0.244E+01 0.388E+04 0.412E+01 0.000E+00 0.000E+00 0.000E+00 0.000E+00 0.000E+00     0.000     0.000     0.000
GRAS   43 000250001   25    0    1.10848E+03     9.300     9.300     5.175     0.000    15.002     3.832    49.284    49.686     0.000     0.000     0.000     0.300     0.000     0.000   999.700  2000.000     0.729     0.729     0.000     0.000     0.000     0.729    95.861    -8.313    -2.568   -14.058    -4.023    15.532    13.220     0.000     0.000     0.000     0.000     0.000     0.000     0.000     0.000     0.000     0.129     0.000     0.000     0.199    -0.001     0.000     0.034     4.664    24.695     0.000     0.000     0.000    14.175     0.935     1.371     0.314     0.000     0.000     0.000     0.000     0.000     0.000     0.000     0.000     0.000     0.000     0.000     0.000 .00000E+00 .00000E+00 0.244E+01 0.388E+04 0.412E+01 0.000E+00 0.000E+00 0.000E+00 0.000E+00 0.000E+00     0.000     0.000     0.000
GRAS   44 000260001   26    0    1.11554E+03     9.300     9.300     5.175     0.000    14.850     3.742    44.041    44.780     0.000     0.000     0.000     0.297     0.000     0.000   999.703  2000.000     0.273     0.273     0.000     0.000     0.000     0.273    94.238    -8.313    -2.568   -14.058    -2.530    15.532     3.903     0.000     0.000     0.000     0.000     0.000     0.000     0.000     0.000     0.000     0.129     0.000     0.000     0.589    -0.004     0.000     0.101     2.013    12.702     0.000     0.000     0.000     9.869     0.689     0.577     0.092     0.000     0.000     0.000     0.000     0.000     0.000     0.000     0.000     0.000     0.000     0.000     0.000 .00000E+00 .00000E+00 0.244E+01 0.404E+04 0.412E+01 0.000E+00 0.000E+00 0.000E+00 0.000E+00 0.000E+00     0.000     0.000     0.000
GRAS   45 000270001   27    0    1.96617E+02     9.300     9.300     5.175     0.000    15.005     3.776    44.031    44.746     0.000     0.000     0.000     0.300     0.000     0.000   999.700  2000.000     0.273     0.273     0.000     0.000     0.000     0.273    94.238    -8.313    -2.568   -14.058    -2.529    15.532     4.672     0.000     0.000     0.000     0.000     0.000     0.000     0.000     0.000     0.000     0.129     0.000     0.000     0.589    -0.004     0.000     0.101     2.014    12.702     0.000     0.000     0.000    11.685     0.782     0.655     0.092     0.000     0.000     0.000     0.000     0.000     0.000     0.000     0.000     0.000     0.000     0.000     0.000 .00000E+00 .00000E+00 0.244E+01 0.404E+04 0.412E+01 0.000E+00 0.000E+00 0.000E+00 0.000E+00 0.000E+00     0.000     0.000     0.000
GRAS   46 000280001   28    0    1.98636E+02     9.300     9.300     5.175     0.000    15.411     3.989    82.160    82.871     0.000     0.000     0.000     0.308     0.000     0.000   999.692  2000.000     0.103     0.103     0.000     0.000     0.000     0.103    93.421    -8.313    -2.568   -14.058    -4.626    15.532     1.966     0.000     0.000     0.000     0.000     0.000     0.000     0.000     0.000     0.000     0.129     0.000     0.000     0.252    -0.002     0.000     0.043     3.565    19.922     0.000     0.000     0.000     3.687     0.240     0.231     0.036     0.000     0.000     0.000     0.000     0.000     0.000     0.000     0.000     0.000     0.000     0.000     0.000 .00000E+00 .00000E+00 0.244E+01 0.404E+04 0.412E+01 0.000E+00 0.000E+00 0.000E+00 0.000E+00 0.000E+00     0.000     0.000     0.000
GRAS   47 000290001   29    0    1.21971E+03     9.300     9.300     5.175     0.000    14.895     3.752    44.038    44.770     0.000     0.000     0.000     0.298     0.000     0.000   999.702  2000.000     0.273     0.273     0.000     0.000     0.000     0.273    94.238    -8.313    -2.568   -14.058    -2.530    15.532     5.007     0.000     0.000     0.000     0.000     0.000     0.000     0.000     0.000     0.000     0.129     0.000     0.000     0.589    -0.004     0.000     0.101     2.015    12.703     0.000     0.000     0.000    12.589     0.828     0.693     0.092     0.000     0.000     0.000     0.000     0.000     0.000     0.000     0.000     0.000     0.000     0.000     0.000 .00000E+00 .00000E+00 0.244E+01 0.404E+04 0.412E+01 0.000E+00 0.000E+00 0.000E+00 0.000E+00 0.000E+00     0.000     0.000     0.000
GRAS   48 000300001   30    0    1.30952E+03     9.300     9.300     5.175     0.000    14.771     3.725    44.047    44.797     0.000     0.000     0.000     0.295     0.000     0.000   999.705  2000.000     0.273     0.273     0.000     0.000     0.000     0.273    94.239    -8.313    -2.568   -14.058    -2.530    15.532     4.435     0.000     0.000     0.000     0.000     0.000     0.000     0.000     0.000     0.000     0.129     0.000     0.000     0.589    -0.004     0.000     0.101     2.014    12.703     0.000     0.000     0.000    11.193     0.757     0.634     0.092     0.000     0.000     0.000     0.000     0.000     0.000     0.000     0.000     0.000     0.000     0.000     0.000 .00000E+00 .00000E+00 0.244E+01 0.404E+04 0.412E+01 0.000E+00 0.000E+00 0.000E+00 0.000E+00 0.000E+00     0.000     0.000     0.000
GRAS   49 000310001   31    0    1.89857E+02     9.300     9.300     5.175     0.000    15.177     3.871    49.272    49.647     0.000     0.000     0.000     0.304     0.000     0.000   999.697  2000.000     0.729     0.729     0.000     0.000     0.000     0.729    95.861    -8.313    -2.568   -14.058    -4.023    15.532    13.995     0.000     0.000     0.000     0.000     0.000     0.000     0.000     0.000     0.000     0.129     0.000     0.000     0.199    -0.001     0.000     0.034     4.664    24.694     0.000     0.000     0.000    15.006     0.976     1.431     0.315     0.000     0.000     0.000     0.000     0.000     0.000     0.000     0.000     0.000     0.000     0.000     0.000 .00000E+00 .00000E+00 0.244E+01 0.388E+04 0.412E+01 0.000E+00 0.000E+00 0.000E+00 0.000E+00 0.000E+00     0.000     0.000     0.000
GRAS   50 000320001   32    0    1.17953E+03     9.300     9.300     5.175     0.000    14.703     3.828    82.210    83.032     0.000     0.000     0.000     0.294     0.000     0.000   999.706  2000.000     0.103     0.103     0.000     0.000     0.000     0.103    93.424    -8.313    -2.568   -14.058    -4.627    15.532     1.852     0.000     0.000     0.000     0.000     0.000     0.000     0.000     0.000     0.000     0.129     0.000     0.000     0.252    -0.002     0.000     0.043     3.565    19.924     0.000     0.000     0.000     3.491     0.231     0.222     0.036     0.000     0.000     0.000     0.000     0.000     0.000     0.000     0.000     0.000     0.000     0.000     0.000 .00000E+00 .00000E+00 0.244E+01 0.404E+04 0.412E+01 0.000E+00 0.000E+00 0.000E+00 0.000E+00 0.000E+00     0.000     0.000     0.000
GRAS   51 000330001   33    0    1.93678E+02     9.300     9.300     5.175     0.000    14.849     3.861    82.199    82.999     0.000     0.000     0.000     0.297     0.000     0.000   999.703  2000.000     0.103     0.103     0.000     0.000     0.000     0.103    93.423    -8.313    -2.568   -14.058    -4.627    15.532     2.011     0.000     0.000     0.000     0.000     0.000     0.000     0.000     0.000     0.000     0.129     0.000     0.000     0.252    -0.002     0.000     0.043     3.565    19.923     0.000     0.000     0.000     3.770     0.244     0.235     0.036     0.000     0.000     0.000     0.000     0.000     0.000     0.000     0.000     0.000     0.000     0.000     0.000 .00000E+00 .00000E+00 0.244E+01 0.404E+04 0.412E+01 0.000E+00 0.000E+00 0.000E+00 0.000E+00 0.000E+00     0.000     0.000     0.000
GRAS   52 000340001   34    0    1.96744E+02     9.300     9.300     5.175     0.000    14.936     3.880    82.193    82.979     0.000     0.000     0.000     0.299     0.000     0.000   999.701  2000.000     0.103     0.103     0.000     0.000     0.000     0.103    93.423    -8.313    -2.568   -14.058    -4.627    15.532     1.843     0.000     0.000     0.000     0.000     0.000     0.000     0.000     0.000     0.000     0.129     0.000     0.000     0.252    -0.002     0.000     0.043     3.565    19.923     0.000     0.000     0.000     3.457     0.229     0.220     0.036     0.000     0.000     0.000     0.000     0.000     0.000     0.000     0.000     0.000     0.000     0.000     0.000 .00000E+00 .00000E+00 0.244E+01 0.404E+04 0.412E+01 0.000E+00 0.000E+00 0.000E+00 0.000E+00 0.000E+00     0.000     0.000     0.000
GRAS   53 000350001   35    0    1.23249E+03     9.300     9.300     5.175     0.000    15.761     4.068    82.135    82.792     0.000     0.000     0.000     0.315     0.000     0.000   999.685  2000.000     0.103     0.103     0.000     0.000     0.000     0.103    93.419    -8.313    -2.568   -14.058    -4.625    15.532     1.809     0.000     0.000     0.000     0.000     0.000     0.000     0.000     0.000     0.000     0.129     0.000     0.000     0.252    -0.002     0.000     0.043     3.564    19.921     0.000     0.000     0.000     3.408     0.226     0.217     0.036     0.000     0.000     0.000     0.000     0.000     0.000     0.000     0.000     0.000     0.000     0.000     0.000 .00000E+00 .00000E+00 0.244E+01 0.404E+04 0.412E+01 0.000E+00 0.000E+00 0.000E+00 0.000E+00 0.000E+00     0.000     0.000     0.000
GRAS   54 000360001   36    0    1.19642E+03     9.300     9.300     5.175     0.000    14.627     3.750    49.314    49.767     0.000     0.000     0.000     0.293     0.000     0.000   999.708  2000.000     0.730     0.730     0.000     0.000     0.000     0.730    95.863    -8.313    -2.568   -14.058    -4.025    15.532    12.941     0.000     0.000     0.000     0.000     0.000     0.000     0.000     0.000     0.000     0.129     0.000     0.000     0.199    -0.001     0.000     0.034     4.665    24.699     0.000     0.000     0.000    13.885     0.921     1.350     0.313     0.000     0.000     0.000     0.000     0.000     0.000     0.000     0.000     0.000     0.000     0.000     0.000 .00000E+00 .00000E+00 0.244E+01 0.388E+04 0.412E+01 0.000E+00 0.000E+00 0.000E+00 0.000E+00 0.000E+00     0.000     0.000     0.000
GRAS   55 000360002   36    0    1.12188E+03     9.300     9.300     5.175     0.000    14.627     3.750    49.314    49.767     0.000     0.000     0.000     0.293     0.000     0.000   999.708  2000.000     0.730     0.730     0.000     0.000     0.000     0.730    95.863    -8.313    -2.568   -14.058    -4.025    15.532     1.921     0.000     0.000     0.000     0.000     0.000     0.000     0.000     0.000     0.000     0.129     0.000     0.000     0.199    -0.001     0.000     0.034     4.645    24.691     0.000     0.000     0.000     2.058     0.219     0.321     0.313     0.000     0.000     0.000     0.000     0.000     0.000     0.000     0.000     0.000     0.000     0.000     0.000 .00000E+00 .00000E+00 0.244E+01 0.388E+04 0.412E+01 0.000E+00 0.000E+00 0.000E+00 0.000E+00 0.000E+00     0.000     0.000     0.000
GRAS   56 000370001   37    0    1.57013E+02     9.300     9.300     5.175     0.000    15.587     4.029    82.147    82.831     0.000     0.000     0.000     0.312     0.000     0.000   999.688  2000.000     0.103     0.103     0.000     0.000     0.000     0.103    93.420    -8.313    -2.568   -14.058    -4.626    15.532     1.825     0.000     0.000     0.000     0.000     0.000     0.000     0.000     0.000     0.000     0.129     0.000     0.000     0.252    -0.002     0.000     0.043     3.564    19.921     0.000     0.000     0.000     3.423     0.227     0.218     0.036     0.000     0.000     0.000     0.000     0.000     0.000     0.000     0.000     0.000     0.000     0.000     0.000 .00000E+00 .00000E+00 0.244E+01 0.404E+04 0.412E+01 0.000E+00 0.000E+00 0.000E+00 0.000E+00 0.000E+00     0.000     0.000     0.000
GRAS   57 000380001   38    0    1.19539E+03     9.300     9.300     5.175     0.000    14.913     3.757    44.038    44.765     0.000     0.000     0.000     0.298     0.000     0.000   999.702  2000.000     0.273     0.273     0.000     0.000     0.000     0.273    94.238    -8.313    -2.568   -14.058    -2.530    15.532     5.323     0.000     0.000     0.000     0.000     0.000     0.000     0.000     0.000     0.000     0.129     0.000     0.000     0.589    -0.004     0.000     0.101     2.015    12.703     0.000     0.000     0.000    13.323     0.864     0.723     0.092     0.000     0.000     0.000     0.000     0.000     0.000     0.000     0.000     0.000     0.000     0.000     0.000 .00000E+00 .00000E+00 0.244E+01 0.404E+04 0.412E+01 0.000E+00 0.000E+00 0.000E+00 0.000E+00 0.000E+00     0.000     0.000     0.000
GRAS   58 000390001   39    0    1.34354E+02     9.300     9.300     5.175     0.000    14.704     3.713    44.056    44.809     0.000     0.000     0.000     0.294     0.000     0.000   999.706  2000.000     0.273     0.273     0.000     0.000     0.000     0.273    94.239    -8.313    -2.568   -14.058    -2.531    15.532     0.548     0.000     0.000     0.000     0.000     0.000     0.000     0.000     0.000     0.000     0.129     0.000     0.000     0.589    -0.004     0.000     0.101     2.006    12.699     0.000     0.000     0.000     1.369     0.156     0.130     0.092     0.000     0.000     0.000     0.000     0.000     0.000     0.000     0.000     0.000     0.000     0.000     0.000 .00000E+00 .00000E+00 0.244E+01 0.404E+04 0.412E+01 0.000E+00 0.000E+00 0.000E+00 0.000E+00 0.000E+00     0.000     0.000     0.000
GRAS   59 000390002   39    0    1.71693E+02     9.300     9.300     5.175     0.000    14.704     3.713    44.056    44.809     0.000     0.000     0.000     0.294     0.000     0.000   999.706  2000.000     0.273     0.273     0.000     0.000     0.000     0.273    94.239    -8.313    -2.568   -14.058    -2.531    15.532     2.832     0.000     0.000     0.000     0.000     0.000     0.000     0.000     0.000     0.000     0.129     0.000     0.000     0.589    -0.004     0.000     0.101     2.011    12.701     0.000     0.000     0.000     7.099     0.538     0.450     0.092     0.000     0.000     0.000     0.000     0.000     0.000     0.000     0.000     0.000     0.000     0.000     0.000 .00000E+00 .00000E+00 0.244E+01 0.404E+04 0.412E+01 0.000E+00 0.000E+00 0.000E+00 0.000E+00 0.000E+00     0.000     0.000     0.000
GRAS   60 000390003   39    0    1.53132E+02     9.300     9.300     5.175     0.000    14.704     3.768    49.309    49.750     0.000     0.000     0.000     0.294     0.000     0.000   999.706  2000.000     0.730     0.730     0.000     0.000     0.000     0.730    95.862    -8.313    -2.568   -14.058    -4.025    15.532    10.720     0.000     0.000     0.000     0.000     0.000     0.000     0.000     0.000     0.000     0.129     0.000     0.000     0.199    -0.001     0.000     0.034     4.661    24.697     0.000     0.000     0.000    11.493     0.799     1.171     0.313     0.000     0.000     0.000     0.000     0.000     0.000     0.000     0.000     0.000     0.000     0.000     0.000 .00000E+00 .00000E+00 0.244E+01 0.388E+04 0.412E+01 0.000E+00 0.000E+00 0.000E+00 0.000E+00 0.000E+00     0.000     0.000     0.000
GRAS   61 000400001   40    0    1.17147E+03     9.300     9.300     5.175     0.000    15.115     3.802    44.024    44.720     0.000     0.000     0.000     0.302     0.000     0.000   999.698  2000.000     0.273     0.273     0.000     0.000     0.000     0.273    94.237    -8.313    -2.568   -14.058    -2.529    15.532     4.944     0.000     0.000     0.000     0.000     0.000     0.000     0.000     0.000     0.000     0.129     0.000     0.000     0.589    -0.004     0.000     0.101     2.015    12.703     0.000     0.000     0.000    12.399     0.818     0.685     0.092     0.000     0.000     0.000     0.000     0.000     0.000     0.000     0.000     0.000     0.000     0.000     0.000 .00000E+00 .00000E+00 0.244E+01 0.404E+04 0.412E+01 0.000E+00 0.000E+00 0.000E+00 0.000E+00 0.000E+00     0.000     0.000     0.000
GRAS   62 000410001   41    0    1.18064E+03     9.300     9.300     5.175     0.000    14.727     3.773    49.307    49.744     0.000     0.000     0.000     0.295     0.000     0.000   999.705  2000.000     0.730     0.730     0.000     0.000     0.000     0.730    95.862    -8.313    -2.568   -14.058    -4.025    15.532    11.085     0.000     0.000     0.000     0.000     0.000     0.000     0.000     0.000     0.000     0.129     0.000     0.000     0.199    -0.001     0.000     0.034     4.662    24.697     0.000     0.000     0.000    12.006     0.826     1.210     0.313     0.000     0.000     0.000     0.000     0.000     0.000     0.000     0.000     0.000     0.000     0.000     0.000 .00000E+00 .00000E+00 0.244E+01 0.388E+04 0.412E+01 0.000E+00 0.000E+00 0.000E+00 0.000E+00 0.000E+00     0.000     0.000     0.000
GRAS   63 000420001   42    0    1.26175E+01     9.300     9.300     5.175     0.000    16.246     4.072   125.674   126.383     0.000     0.000     0.000     0.325     0.000     0.000   999.675  2000.000     0.128     0.128     0.000     0.000     0.000     0.128    93.377    -8.313    -2.568   -14.058    -5.900    15.532     0.151     0.000     0.000     0.000     0.000     0.000     0.000     0.000     0.000     0.000     0.129     0.000     0.000     0.116    -0.001     0.000     0.020     6.310    29.091     0.000     0.000     0.000     0.108     0.014     0.028     0.047     0.000     0.000     0.000     0.000     0.000     0.000     0.000     0.000     0.000     0.000     0.000     0.000 .00000E+00 .00000E+00 0.244E+01 0.388E+04 0.412E+01 0.000E+00 0.000E+00 0.000E+00 0.000E+00 0.000E+00     0.000     0.000     0.000
GRAS   64 000420002   42    0    1.66927E+01     9.300     9.300     5.175     0.000    16.246     4.072   125.674   126.383     0.000     0.000     0.000     0.325     0.000     0.000   999.675  2000.000     0.128     0.128     0.000     0.000     0.000     0.128    93.377    -8.313    -2.568   -14.058    -5.900    15.532     3.056     0.000     0.000     0.000     0.000     0.000     0.000     0.000     0.000     0.000     0.129     0.000     0.000     0.116    -0.001     0.000     0.020     6.315    29.093     0.000     0.000     0.000     2.183     0.134     0.268     0.047     0.000     0.000     0.000     0.000     0.000     0.000     0.000     0.000     0.000     0.000     0.000     0.000 .00000E+00 .00000E+00 0.244E+01 0.388E+04 0.412E+01 0.000E+00 0.000E+00 0.000E+00 0.000E+00 0.000E+00     0.000     0.000     0.000
GRAS   65 000430001   43    0    1.33275E+03     9.300     9.300     5.175     0.000    15.700     4.054    82.139    82.806     0.000     0.000     0.000     0.314     0.000     0.000   999.686  2000.000     0.103     0.103     0.000     0.000     0.000     0.103    93.419    -8.313    -2.568   -14.058    -4.625    15.532     2.020     0.000     0.000     0.000     0.000     0.000     0.000     0.000     0.000     0.000     0.129     0.000     0.000     0.252    -0.002     0.000     0.043     3.564    19.921     0.000     0.000     0.000     3.799     0.246     0.236     0.036     0.000     0.000     0.000     0.000     0.000     0.000     0.000     0.000     0.000     0.000     0.000     0.000 .00000E+00 .00000E+00 0.244E+01 0.404E+04 0.412E+01 0.000E+00 0.000E+00 0.000E+00 0.000E+00 0.000E+00     0.000     0.000     0.000
GRAS   66 000440001   44    0    1.40160E+02     9.300     9.300     5.175     0.000    14.808     3.735    44.048    44.786     0.000     0.000     0.000     0.296     0.000     0.000   999.704  2000.000     0.273     0.273     0.000     0.000     0.000     0.273    94.239    -8.313    -2.568   -14.058    -2.530    15.532     0.484     0.000     0.000     0.000     0.000     0.000     0.000     0.000     0.000     0.000     0.129     0.000     0.000     0.589    -0.004     0.000     0.101     2.006    12.698     0.000     0.000     0.000     1.210     0.142     0.119     0.092     0.000     0.000     0.000     0.000     0.000     0.000     0.000     0.000     0.000     0.000     0.000     0.000 .00000E+00 .00000E+00 0.244E+01 0.404E+04 0.412E+01 0.000E+00 0.000E+00 0.000E+00 0.000E+00 0.000E+00     0.000     0.000     0.000
GRAS   67 000440002   44    0    1.85980E+02     9.300     9.300     5.175     0.000    14.808     3.735    44.048    44.786     0.000     0.000     0.000     0.296     0.000     0.000   999.704  2000.000     0.273     0.273     0.000     0.000     0.000     0.273    94.239    -8.313    -2.568   -14.058    -2.530    15.532     2.963     0.000     0.000     0.000     0.000     0.000     0.000     0.000     0.000     0.000     0.129     0.000     0.000     0.589    -0.004     0.000     0.101     2.011    12.701     0.000     0.000     0.000     7.428     0.556     0.466     0.092     0.000     0.000     0.000     0.000     0.000     0.000     0.000     0.000     0.000     0.000     0.000     0.000 .00000E+00 .00000E+00 0.244E+01 0.404E+04 0.412E+01 0.000E+00 0.000E+00 0.000E+00 0.000E+00 0.000E+00     0.000     0.000     0.000
GRAS   68 000450001   45    0    1.17250E+03     9.300     9.300     5.175     0.000    14.914     3.815    49.293    49.703     0.000     0.000     0.000     0.298     0.000     0.000   999.702  2000.000     0.730     0.730     0.000     0.000     0.000     0.730    95.862    -8.313    -2.568   -14.058    -4.024    15.532    10.818     0.000     0.000     0.000     0.000     0.000     0.000     0.000     0.000     0.000     0.129     0.000     0.000     0.199    -0.001     0.000     0.034     4.661    24.695     0.000     0.000     0.000    11.780     0.814     1.193     0.314     0.000     0.000     0.000     0.000     0.000     0.000     0.000     0.000     0.000     0.000     0.000     0.000 .00000E+00 .00000E+00 0.244E+01 0.388E+04 0.412E+01 0.000E+00 0.000E+00 0.000E+00 0.000E+00 0.000E+00     0.000     0.000     0.000
GRAS   69 000450002   45    0    1.44598E+02     9.300     9.300     5.175     0.000    14.914     3.815    49.293    49.703     0.000     0.000     0.000     0.298     0.000     0.000   999.702  2000.000     0.730     0.730     0.000     0.000     0.000     0.730    95.862    -8.313    -2.568   -14.058    -4.024    15.532     1.630     0.000     0.000     0.000     0.000     0.000     0.000     0.000     0.000     0.000     0.129     0.000     0.000     0.199    -0.001     0.000     0.034     4.643    24.688     0.000     0.000     0.000     1.746     0.193     0.283     0.314     0.000     0.000     0.000     0.000     0.000     0.000     0.000     0.000     0.000     0.000     0.000     0.000 .00000E+00 .00000E+00 0.244E+01 0.388E+04 0.412E+01 0.000E+00 0.000E+00 0.000E+00 0.000E+00 0.000E+00     0.000     0.000     0.000
GRAS   70 000460001   46    0    1.16302E+01     9.300     9.300     5.175     0.000    16.307     4.064    43.944    44.459     0.000     0.000     0.000     0.326     0.000     0.000   999.674  2000.000     0.272     0.272     0.000     0.000     0.000     0.272    94.232    -8.313    -2.568   -14.058    -2.524    15.532     5.128     0.000     0.000     0.000     0.000     0.000     0.000     0.000     0.000     0.000     0.129     0.000     0.000     0.589    -0.004     0.000     0.101     2.014    12.701     0.000     0.000     0.000    12.820     0.838     0.702     0.092     0.000     0.000     0.000     0.000     0.000     0.000     0.000     0.000     0.000     0.000     0.000     0.000 .00000E+00 .00000E+00 0.244E+01 0.404E+04 0.412E+01 0.000E+00 0.000E+00 0.000E+00 0.000E+00 0.000E+00     0.000     0.000     0.000
GRAS   71 000470001   47    0    1.62083E+02     9.300     9.300     5.175     0.000    15.446     3.998    82.159    82.862     0.000     0.000     0.000     0.309     0.000     0.000   999.691  2000.000     0.103     0.103     0.000     0.000     0.000     0.103    93.421    -8.313    -2.568   -14.058    -4.626    15.532     1.527     0.000     0.000     0.000     0.000     0.000     0.000     0.000     0.000     0.000     0.129     0.000     0.000     0.252    -0.002     0.000     0.043     3.564    19.921     0.000     0.000     0.000     2.865     0.199     0.191     0.036     0.000     0.000     0.000     0.000     0.000     0.000     0.000     0.000     0.000     0.000     0.000     0.000 .00000E+00 .00000E+00 0.244E+01 0.404E+04 0.412E+01 0.000E+00 0.000E+00 0.000E+00 0.000E+00 0.000E+00     0.000     0.000     0.000
GRAS   72 000480001   48    0    1.35857E+02     9.300     9.300     5.175     0.000    15.172     3.873    49.276    49.645     0.000     0.000     0.000     0.303     0.000     0.000   999.697  2000.000     0.729     0.729     0.000     0.000     0.000     0.729    95.861    -8.313    -2.568   -14.058    -4.023    15.532     1.480     0.000     0.000     0.000     0.000     0.000     0.000     0.000     0.000     0.000     0.129     0.000     0.000     0.199    -0.001     0.000     0.034     4.642    24.686     0.000     0.000     0.000     1.588     0.180     0.264     0.314     0.000     0.000     0.000     0.000     0.000     0.000     0.000     0.000     0.000     0.000     0.000     0.000 .00000E+00 .00000E+00 0.244E+01 0.388E+04 0.412E+01 0.000E+00 0.000E+00 0.000E+00 0.000E+00 0.000E+00     0.000     0.000     0.000
GRAS   73 000480002   48    0    1.97096E+02     9.300     9.300     5.175     0.000    15.172     3.873    49.276    49.645     0.000     0.000     0.000     0.303     0.000     0.000   999.697  2000.000     0.729     0.729     0.000     0.000     0.000     0.729    95.861    -8.313    -2.568   -14.058    -4.023    15.532     8.607     0.000     0.000     0.000     0.000     0.000     0.000     0.000     0.000     0.000     0.129     0.000     0.000     0.199    -0.001     0.000     0.034     4.657    24.692     0.000     0.000     0.000     9.576     0.696     1.020     0.314     0.000     0.000     0.000     0.000     0.000     0.000     0.000     0.000     0.000     0.000     0.000     0.000 .00000E+00 .00000E+00 0.244E+01 0.388E+04 0.412E+01 0.000E+00 0.000E+00 0.000E+00 0.000E+00 0.000E+00     0.000     0.000     0.000
GRAS   74 000490001   49    0    1.53468E+01     9.300     9.300     5.175     0.000    16.262     4.181    82.102    82.680     0.000     0.000     0.000     0.325     0.000     0.000   999.675  2000.000     0.103     0.103     0.000     0.000     0.000     0.103    93.417    -8.313    -2.568   -14.058    -4.625    15.532     1.095     0.000     0.000     0.000     0.000     0.000     0.000     0.000     0.000     0.000     0.129     0.000     0.000     0.252    -0.002     0.000     0.043     3.562    19.919     0.000     0.000     0.000     2.053     0.154     0.148     0.036     0.000     0.000     0.000     0.000     0.000     0.000     0.000     0.000     0.000     0.000     0.000     0.000 .00000E+00 .00000E+00 0.244E+01 0.404E+04 0.412E+01 0.000E+00 0.000E+00 0.000E+00 0.000E+00 0.000E+00     0.000     0.000     0.000
GRAS   75 000500001   50    0    1.25690E+03     9.300     9.300     5.175     0.000    15.566     4.025    82.150    82.835     0.000     0.000     0.000     0.311     0.000     0.000   999.689  2000.000     0.103     0.103     0.000     0.000     0.000     0.103    93.420    -8.313    -2.568   -14.058    -4.626    15.532     1.677     0.000     0.000     0.000     0.000     0.000     0.000     0.000     0.000     0.000     0.129     0.000     0.000     0.252    -0.002     0.000     0.043     3.564    19.921     0.000     0.000     0.000     3.160     0.214     0.205     0.036     0.000     0.000     0.000     0.000     0.000     0.000     0.000     0.000     0.000     0.000     0.000     0.000 .00000E+00 .00000E+00 0.244E+01 0.404E+04 0.412E+01 0.000E+00 0.000E+00 0.000E+00 0.000E+00 0.000E+00     0.000     0.000     0.000
GRAS   76 000510001   51    0    1.23941E+03     9.300     9.300     5.175     0.000    14.599     3.688    44.061    44.834     0.000     0.000     0.000     0.292     0.000     0.000   999.708  2000.000     0.274     0.274     0.000     0.000     0.000     0.274    94.240    -8.313    -2.568   -14.058    -2.531    15.532     3.326     0.000     0.000     0.000     0.000     0.000     0.000     0.000     0.000     0.000     0.129     0.000     0.000     0.589    -0.004     0.000     0.101     2.012    12.702     0.000     0.000     0.000     8.774     0.631     0.528     0.092     0.000     0.000     0.000     0.000     0.000     0.000     0.000     0.000     0.000     0.000     0.000     0.000 .00000E+00 .00000E+00 0.244E+01 0.404E+04 0.412E+01 0.000E+00 0.000E+00 0.000E+00 0.000E+00 0.000E+00     0.000     0.000     0.000
GRAS   77 000520001   52    0    1.16015E+03     9.300     9.300     5.175     0.000    15.071     3.849    49.282    49.669     0.000     0.000     0.000     0.301     0.000     0.000   999.698  2000.000     0.729     0.729     0.000     0.000     0.000     0.729    95.861    -8.313    -2.568   -14.058    -4.023    15.532    13.294     0.000     0.000     0.000     0.000     0.000     0.000     0.000     0.000     0.000     0.129     0.000     0.000     0.199    -0.001     0.000     0.034     4.664    24.695     0.000     0.000     0.000    14.281     0.941     1.379     0.314     0.000     0.000     0.000     0.000     0.000     0.000     0.000     0.000     0.000     0.000     0.000     0.000 .00000E+00 .00000E+00 0.244E+01 0.388E+04 0.412E+01 0.000E+00 0.000E+00 0.000E+00 0.000E+00 0.000E+00     0.000     0.000     0.000
GRAS   78 000530001   53    0    1.62233E+02     9.300     9.300     5.175     0.000    15.116     3.860    49.279    49.658     0.000     0.000     0.000     0.302     0.000     0.000   999.698  2000.000     0.729     0.729     0.000     0.000     0.000     0.729    95.861    -8.313    -2.568   -14.058    -4.023    15.532    11.506     0.000     0.000     0.000     0.000     0.000     0.000     0.000     0.000     0.000     0.129     0.000     0.000     0.199    -0.001     0.000     0.034     4.661    24.694     0.000     0.000     0.000    12.342     0.843     1.235     0.314     0.000     0.000     0.000     0.000     0.000     0.000     0.000     0.000     0.000     0.000     0.000     0.000 .00000E+00 .00000E+00 0.244E+01 0.388E+04 0.412E+01 0.000E+00 0.000E+00 0.000E+00 0.000E+00 0.000E+00     0.000     0.000     0.000
GRAS   79 000540001   54    0    1.39093E+03     9.300     9.300     5.175     0.000    15.251     3.889    49.269    49.629     0.000     0.000     0.000     0.305     0.000     0.000   999.695  2000.000     0.729     0.729     0.000     0.000     0.000     0.729    95.861    -8.313    -2.568   -14.058    -4.023    15.532    14.419     0.000     0.000     0.000     0.000     0.000     0.000     0.000     0.000     0.000     0.129     0.000     0.000     0.199    -0.001     0.000     0.034     4.665    24.695     0.000     0.000     0.000    15.803     1.015     1.488     0.315     0.000     0.000     0.000     0.000     0.000     0.000     0.000     0.000     0.000     0.000     0.000     0.000 .00000E+00 .00000E+00 0.244E+01 0.388E+04 0.412E+01 0.000E+00 0.000E+00 0.000E+00 0.000E+00 0.000E+00     0.000     0.000     0.000
GRAS   80 000550001   55    0    1.94321E+02     9.300     9.300     5.175     0.000    15.117     3.924    82.184    82.936     0.000     0.000     0.000     0.302     0.000     0.000   999.698  2000.000     0.103     0.103     0.000     0.000     0.000     0.103    93.422    -8.313    -2.568   -14.058    -4.626    15.532     1.595     0.000     0.000     0.000     0.000     0.000     0.000     0.000     0.000     0.000     0.129     0.000     0.000     0.252    -0.002     0.000     0.043     3.564    19.923     0.000     0.000     0.000     2.993     0.205     0.197     0.036     0.000     0.000     0.000     0.000     0.000     0.000     0.000     0.000     0.000     0.000     0.000     0.000 .00000E+00 .00000E+00 0.244E+01 0.404E+04 0.412E+01 0.000E+00 0.000E+00 0.000E+00 0.000E+00 0.000E+00     0.000     0.000     0.000
GRAS   81 000560001   56    0    1.92100E+02     9.300     9.300     5.175     0.000    15.194     3.877    49.273    49.642     0.000     0.000     0.000     0.304     0.000     0.000   999.696  2000.000     0.729     0.729     0.000     0.000     0.000     0.729    95.861    -8.313    -2.568   -14.058    -4.023    15.532    15.149     0.000     0.000     0.000     0.000     0.000     0.000     0.000     0.000     0.000     0.129     0.000     0.000     0.199    -0.001     0.000     0.034     4.666    24.696     0.000     0.000     0.000    16.256     1.037     1.520     0.314     0.000     0.000     0.000     0.000     0.000     0.000     0.000     0.000     0.000     0.000     0.000     0.000 .00000E+00 .00000E+00 0.244E+01 0.388E+04 0.412E+01 0.000E+00 0.000E+00 0.000E+00 0.000E+00 0.000E+00     0.000     0.000     0.000
GRAS   82 000570001   57    0    1.28379E+03     9.300     9.300     5.175     0.000    15.387     3.985    82.164    82.875     0.000     0.000     0.000     0.308     0.000     0.000   999.692  2000.000     0.103     0.103     0.000     0.000     0.000     0.103    93.421    -8.313    -2.568   -14.058    -4.626    15.532     1.575     0.000     0.000     0.000     0.000     0.000     0.000     0.000     0.000     0.000     0.129     0.000     0.000     0.252    -0.002     0.000     0.043     3.564    19.922     0.000     0.000     0.000     2.990     0.205     0.197     0.036     0.000     0.000     0.000     0.000     0.000     0.000     0.000     0.000     0.000     0.000     0.000     0.000 .00000E+00 .00000E+00 0.244E+01 0.404E+04 0.412E+01 0.000E+00 0.000E+00 0.000E+00 0.000E+00 0.000E+00     0.000     0.000     0.000
GRAS   83 000580001   58    0    1.12635E+03     9.300     9.300     5.175     0.000    15.018     3.837    49.285    49.681     0.000     0.000     0.000     0.300     0.000     0.000   999.700  2000.000     0.729     0.729     0.000     0.000     0.000     0.729    95.861    -8.313    -2.568   -14.058    -4.024    15.532    16.450     0.000     0.000     0.000     0.000     0.000     0.000     0.000     0.000     0.000     0.129     0.000     0.000     0.199    -0.001     0.000     0.034     4.669    24.698     0.000     0.000     0.000    17.667     1.104     1.618     0.314     0.000     0.000     0.000     0.000     0.000     0.000     0.000     0.000     0.000     0.000     0.000     0.000 .00000E+00 .00000E+00 0.244E+01 0.388E+04 0.412E+01 0.000E+00 0.000E+00 0.000E+00 0.000E+00 0.000E+00     0.000     0.000     0.000
GRAS   84 000590001   59    0    1.45554E+03     9.300     9.300     5.175     0.000    15.458     3.935    49.254    49.584     0.000     0.000     0.000     0.309     0.000     0.000   999.691  2000.000     0.729     0.729     0.000     0.000     0.000     0.729    95.860    -8.313    -2.568   -14.058    -4.022    15.532    17.405     0.000     0.000     0.000     0.000     0.000     0.000     0.000     0.000     0.000     0.129     0.000     0.000     0.199    -0.001     0.000     0.034     4.669    24.695     0.000     0.000     0.000    19.052     1.169     1.713     0.315     0.000     0.000     0.000     0.000     0.000     0.000     0.000     0.000     0.000     0.000     0.000     0.000 .00000E+00 .00000E+00 0.244E+01 0.388E+04 0.412E+01 0.000E+00 0.000E+00 0.000E+00 0.000E+00 0.000E+00     0.000     0.000     0.000
GRAS   85 000600001   60    0    1.21268E+02     9.300     9.300     5.175     0.000    16.366     4.204    82.095    82.656     0.000     0.000     0.000     0.327     0.000     0.000   999.673  2000.000     0.102     0.103     0.000     0.000     0.000     0.103    93.417    -8.313    -2.568   -14.058    -4.625    15.532     1.562     0.000     0.000     0.000     0.000     0.000     0.000     0.000     0.000     0.000     0.129     0.000     0.000     0.252    -0.002     0.000     0.043     3.563    19.919     0.000     0.000     0.000     2.929     0.202     0.194     0.036     0.000     0.000     0.000     0.000     0.000     0.000     0.000     0.000     0.000     0.000     0.000     0.000 .00000E+00 .00000E+00 0.244E+01 0.404E+04 0.412E+01 0.000E+00 0.000E+00 0.000E+00 0.000E+00 0.000E+00     0.000     0.000     0.000
GRAS   86 000610001   61    0    1.43515E+02     9.300     9.300     5.175     0.000    15.661     4.047    82.144    82.813     0.000     0.000     0.000     0.313     0.000     0.000   999.687  2000.000     0.103     0.103     0.000     0.000     0.000     0.103    93.420    -8.313    -2.568   -14.058    -4.626    15.532     1.487     0.000     0.000     0.000     0.000     0.000     0.000     0.000     0.000     0.000     0.129     0.000     0.000     0.252    -0.002     0.000     0.043     3.564    19.921     0.000     0.000     0.000     2.789     0.195     0.187     0.036     0.000     0.000     0.000     0.000     0.000     0.000     0.000     0.000     0.000     0.000     0.000     0.000 .00000E+00 .00000E+00 0.244E+01 0.404E+04 0.412E+01 0.000E+00 0.000E+00 0.000E+00 0.000E+00 0.000E+00     0.000     0.000     0.000
GRAS   87 000620001   62    0    1.65740E+02     9.300     9.300     5.175     0.000    15.980     4.118    82.121    82.742     0.000     0.000     0.000     0.320     0.000     0.000   999.681  2000.000     0.103     0.103     0.000     0.000     0.000     0.103    93.418    -8.313    -2.568   -14.058    -4.625    15.532     1.752     0.000     0.000     0.000     0.000     0.000     0.000     0.000     0.000     0.000     0.129     0.000     0.000     0.252    -0.002     0.000     0.043     3.564    19.920     0.000     0.000     0.000     3.285     0.220     0.211     0.036     0.000     0.000     0.000     0.000     0.000     0.000     0.000     0.000     0.000     0.000     0.000     0.000 .00000E+00 .00000E+00 0.244E+01 0.404E+04 0.412E+01 0.000E+00 0.000E+00 0.000E+00 0.000E+00 0.000E+00     0.000     0.000     0.000
GRAS   88 000630001   63    0    1.46618E+02     9.300     9.300     5.175     0.000    16.296     4.188    82.099    82.672     0.000     0.000     0.000     0.326     0.000     0.000   999.674  2000.000     0.103     0.103     0.000     0.000     0.000     0.103    93.417    -8.313    -2.568   -14.058    -4.625    15.532     1.868     0.000     0.000     0.000     0.000     0.000     0.000     0.000     0.000     0.000     0.129     0.000     0.000     0.252    -0.002     0.000     0.043     3.564    19.919     0.000     0.000     0.000     3.503     0.231     0.222     0.036     0.000     0.000     0.000     0.000     0.000     0.000     0.000     0.000     0.000     0.000     0.000     0.000 .00000E+00 .00000E+00 0.244E+01 0.404E+04 0.412E+01 0.000E+00 0.000E+00 0.000E+00 0.000E+00 0.000E+00     0.000     0.000     0.000
GRAS   89 000640001   64    0    1.31590E+03     9.300     9.300     5.175     0.000    15.756     3.989   125.708   126.466     0.000     0.000     0.000     0.315     0.000     0.000   999.685  2000.000     0.128     0.128     0.000     0.000     0.000     0.128    93.378    -8.313    -2.568   -14.058    -5.900    15.532     3.191     0.000     0.000     0.000     0.000     0.000     0.000     0.000     0.000     0.000     0.129     0.000     0.000     0.116    -0.001     0.000     0.020     6.316    29.096     0.000     0.000     0.000     2.344     0.142     0.283     0.047     0.000     0.000     0.000     0.000     0.000     0.000     0.000     0.000     0.000     0.000     0.000     0.000 .00000E+00 .00000E+00 0.244E+01 0.388E+04 0.412E+01 0.000E+00 0.000E+00 0.000E+00 0.000E+00 0.000E+00     0.000     0.000     0.000
GRAS   90 000650001   65    0    1.38183E+02     9.300     9.300     5.175     0.000    16.301     4.189    82.098    82.671     0.000     0.000     0.000     0.326     0.000     0.000   999.674  2000.000     0.103     0.103     0.000     0.000     0.000     0.103    93.417    -8.313    -2.568   -14.058    -4.625    15.532     1.768     0.000     0.000     0.000     0.000     0.000     0.000     0.000     0.000     0.000     0.129     0.000     0.000     0.252    -0.002     0.000     0.043     3.563    19.919     0.000     0.000     0.000     3.314     0.221     0.213     0.036     0.000     0.000     0.000     0.000     0.000     0.000     0.000     0.000     0.000     0.000     0.000     0.000 .00000E+00 .00000E+00 0.244E+01 0.404E+04 0.412E+01 0.000E+00 0.000E+00 0.000E+00 0.000E+00 0.000E+00     0.000     0.000     0.000
GRAS   91 000660001   66    0    1.71296E+02     9.300     9.300     5.175     0.000    16.091     4.142    82.113    82.718     0.000     0.000     0.000     0.322     0.000     0.000   999.678  2000.000     0.103     0.103     0.000     0.000     0.000     0.103    93.418    -8.313    -2.568   -14.058    -4.625    15.532     1.636     0.000     0.000     0.000     0.000     0.000     0.000     0.000     0.000     0.000     0.129     0.000     0.000     0.252    -0.002     0.000     0.043     3.563    19.919     0.000     0.000     0.000     3.072     0.209     0.201     0.036     0.000     0.000     0.000     0.000     0.000     0.000     0.000     0.000     0.000     0.000     0.000     0.000 .00000E+00 .00000E+00 0.244E+01 0.404E+04 0.412E+01 0.000E+00 0.000E+00 0.000E+00 0.000E+00 0.000E+00     0.000     0.000     0.000
GRAS   92 000670001   67    0    1.26423E+03     9.300     9.300     5.175     0.000    15.977     4.027   125.692   126.428     0.000     0.000     0.000     0.320     0.000     0.000   999.681  2000.000     0.128     0.128     0.000     0.000     0.000     0.128    93.378    -8.313    -2.568   -14.058    -5.900    15.532     3.262     0.000     0.000     0.000     0.000     0.000     0.000     0.000     0.000     0.000     0.129     0.000     0.000     0.116    -0.001     0.000     0.020     6.316    29.095     0.000     0.000     0.000     2.351     0.142     0.284     0.047     0.000     0.000     0.000     0.000     0.000     0.000     0.000     0.000     0.000     0.000     0.000     0.000 .00000E+00 .00000E+00 0.244E+01 0.388E+04 0.412E+01 0.000E+00 0.000E+00 0.000E+00 0.000E+00 0.000E+00     0.000     0.000     0.000
GRAS   93 000680001   68    0    1.42857E+02     9.300     9.300     5.175     0.000    16.538     4.122   125.653   126.334     0.000     0.000     0.000     0.331     0.000     0.000   999.669  2000.000     0.127     0.128     0.000     0.000     0.000     0.128    93.376    -8.313    -2.568   -14.058    -5.900    15.532     2.849     0.000     0.000     0.000     0.000     0.000     0.000     0.000     0.000     0.000     0.129     0.000     0.000     0.116    -0.001     0.000     0.020     6.314    29.091     0.000     0.000     0.000     2.035     0.128     0.254     0.047     0.000     0.000     0.000     0.000     0.000     0.000     0.000     0.000     0.000     0.000     0.000     0.000 .00000E+00 .00000E+00 0.244E+01 0.388E+04 0.412E+01 0.000E+00 0.000E+00 0.000E+00 0.000E+00 0.000E+00     0.000     0.000     0.000
GRAS   94 000690001   69    0    1.37039E+02     9.300     9.300     5.175     0.000    16.721     4.152   125.641   126.303     0.000     0.000     0.000     0.334     0.000     0.000   999.666  2000.000     0.127     0.127     0.000     0.000     0.000     0.127    93.376    -8.313    -2.568   -14.058    -5.900    15.532     2.571     0.000     0.000     0.000     0.000     0.000     0.000     0.000     0.000     0.000     0.129     0.000     0.000     0.116    -0.001     0.000     0.020     6.313    29.090     0.000     0.000     0.000     1.836     0.118     0.235     0.047     0.000     0.000     0.000     0.000     0.000     0.000     0.000     0.000     0.000     0.000     0.000     0.000 .00000E+00 .00000E+00 0.244E+01 0.388E+04 0.412E+01 0.112E+04 0.630E+05 0.000E+00 0.000E+00 0.000E+00     0.000     0.000     0.000
[...]
GRAS   72 000480001   48    0  1.0.35857E+02  1671.600   428.009   407.378     0.000   686.754   405.903    80.474    80.863   913.678   339.681    16.984    13.735     0.000     0.000   987.573  2006.940   270.008   270.008     0.000    31.725   321.390   633.168    91.513     2.340     6.607    -1.927     4.977    18.198   541.593   213.903     0.000     0.000     0.000     0.000     0.000     0.000     0.000     0.000    41.132     0.000     0.000     4.355    -0.326     0.000     0.747    12.230    44.593     0.000     0.136     0.014   111.344    13.621    20.447     8.118     0.575    75.263     0.307     0.018     0.000     0.000   139.583     0.000     0.000     0.010     0.046     0.000 .00000E+00 .00000E+00 0.232E+01 0.000E+00 0.181E+02 0.000E+00 0.000E+00 0.000E+00 0.000E+00 0.575E+00    10.044    31.725     0.000
GRAS   73 000480002   48    0  1.0.97096E+02  1671.600   428.009   407.378     0.000   686.754   404.193    80.186    80.781   850.306   316.256    15.813    13.735     0.000     0.000   987.481  2006.457   267.661   267.661     0.000    98.453   299.227   674.697    91.480     2.340     6.607    -1.927     4.980    18.198  3143.869  1600.184     0.000     0.000     0.000     0.000     0.000     0.000     0.000     0.000    41.132     0.000     0.000     4.344    -0.325     0.000     0.745    12.287    44.529     0.000     0.136     0.014   111.427    13.649    20.596     8.056     1.791    71.465     0.272     0.006     0.000     0.000   139.583     0.000     0.000     0.010     0.046     0.000 .00000E+00 .00000E+00 0.232E+01 0.000E+00 0.181E+02 0.000E+00 0.000E+00 0.000E+00 0.000E+00 0.179E+01     9.356    98.453     0.000
GRAS   74 000490001   49    0  1.0.53468E+01  1671.600   427.871   407.043     0.000   683.514   456.912   132.256   138.962   748.641   277.710    13.886    13.670     0.000     0.000   987.402  2005.689   162.514   162.514     0.000   228.220   262.753   661.683    88.470     2.340     6.607    -1.927     4.876    18.198  2220.380  1667.379     0.000     0.000     0.000     0.000     0.000     0.000     0.000     0.000    41.124     0.000     0.000     5.943    -0.439     0.000     1.021     9.859    36.365     0.000     0.136     0.014   164.995    20.210    19.894     4.659     3.741    63.575     0.212     0.005     0.000     0.000   139.583     0.000     0.000     0.010     0.046     0.000 .00000E+00 .00000E+00 0.232E+01 0.000E+00 0.181E+02 0.000E+00 0.000E+00 0.000E+00 0.000E+00 0.374E+01     8.196   228.220     0.000
GRAS   75 000500001   50    0  1.0.25690E+03  1671.600   427.962   407.278     0.000   688.085   459.387   132.195   139.065   720.027   266.998    13.350    13.762     0.000     0.000   987.269  2005.470   162.195   162.196     0.000   254.571   252.616   677.264    88.460     2.340     6.607    -1.927     4.876    18.198  3346.336  1793.414     0.000     0.000     0.000     0.000     0.000     0.000     0.000     0.000    41.130     0.000     0.000     5.940    -0.439     0.000     1.019     9.881    36.378     0.000     0.136     0.014   164.998    20.212    19.908     4.645     4.193    62.112     0.199     0.004     0.000     0.000   139.583     0.000     0.000     0.010     0.046     0.000 .00000E+00 .00000E+00 0.232E+01 0.000E+00 0.181E+02 0.000E+00 0.000E+00 0.000E+00 0.000E+00 0.419E+01     7.880   254.571     0.000
GRAS   76 000510001   51    0  1.0.23941E+03  1671.600   428.108   407.591     0.000   691.680   393.389    70.944    71.848   800.356   300.746    15.037    13.834     0.000     0.000   987.304  2006.088   167.409   167.409     0.000   264.084   284.572   725.015    88.784     2.340     6.607    -1.927     5.759    18.198  2314.631  1646.189     0.000     0.000     0.000     0.000     0.000     0.000     0.000     0.000    41.138     0.000     0.000    11.265    -0.875     0.000     1.932     6.736    24.306     0.000     0.136     0.014   199.995    24.498    20.945     4.915     3.952    65.449     0.233     0.005     0.000     0.000   139.583     0.000     0.000     0.010     0.046     0.000 .00000E+00 .00000E+00 0.232E+01 0.000E+00 0.181E+02 0.000E+00 0.000E+00 0.000E+00 0.000E+00 0.395E+01     8.951   264.084     0.000
GRAS   77 000520001   52    0  1.0.16015E+03  1671.600   428.024   407.425     0.000   688.979   404.892    80.135    80.748   840.399   312.583    15.629    13.780     0.000     0.000   987.422  2006.380   267.299   267.299     0.000   107.943   295.752   680.242    91.474     2.340     6.607    -1.927     4.981    18.198  4817.251  1637.218     0.000     0.000     0.000     0.000     0.000     0.000     0.000     0.000    41.133     0.000     0.000     4.343    -0.325     0.000     0.745    12.295    44.512     0.000     0.136     0.014   111.428    13.650    20.606     8.045     1.966    70.917     0.267     0.005     0.000     0.000   139.583     0.000     0.000     0.010     0.046     0.000 .00000E+00 .00000E+00 0.232E+01 0.000E+00 0.181E+02 0.000E+00 0.000E+00 0.000E+00 0.000E+00 0.197E+01     9.248   107.943     0.000
GRAS   78 000530001   53    0  1.0.62233E+02  1671.600   428.017   407.403     0.000   687.880   404.537    80.159    80.765   845.113   314.331    15.717    13.758     0.000     0.000   987.450  2006.418   267.466   267.466     0.000   103.453   297.406   677.625    91.477     2.340     6.607    -1.927     4.980    18.198  4175.910  1533.795     0.000     0.000     0.000     0.000     0.000     0.000     0.000     0.000    41.133     0.000     0.000     4.343    -0.325     0.000     0.745    12.291    44.518     0.000     0.136     0.014   111.428    13.650    20.602     8.050     1.883    71.177     0.270     0.005     0.000     0.000   139.583     0.000     0.000     0.010     0.046     0.000 .00000E+00 .00000E+00 0.232E+01 0.000E+00 0.181E+02 0.000E+00 0.000E+00 0.000E+00 0.000E+00 0.188E+01     9.299   103.453     0.000
GRAS   79 000540001   54    0  1.0.39093E+03  1671.600   428.001   407.369     0.000   688.394   404.476    80.101    80.703   830.824   309.048    15.452    13.768     0.000     0.000   987.419  2006.308   267.047   267.047     0.000   118.113   292.408   686.711    91.471     2.340     6.607    -1.927     4.981    18.198  5236.345  1999.923     0.000     0.000     0.000     0.000     0.000     0.000     0.000     0.000    41.132     0.000     0.000     4.342    -0.325     0.000     0.750    12.307    44.513     0.000     0.136     0.014   111.428    13.644    20.613     8.043     2.152    70.327     0.262     0.005     0.000     0.000   139.583     0.000     0.000     0.010     0.046     0.000 .00000E+00 .00000E+00 0.232E+01 0.000E+00 0.181E+02 0.000E+00 0.000E+00 0.000E+00 0.000E+00 0.215E+01     9.144   118.113     0.000
GRAS   80 000550001   55    0  1.0.94321E+02  1671.600   428.018   407.412     0.000   688.993   460.228   132.220   139.196   722.446   267.866    13.393    13.780     0.000     0.000   987.256  2005.488   162.224   162.225     0.000   251.151   253.438   674.720    88.462     2.340     6.607    -1.927     4.875    18.198  3182.743  1904.186     0.000     0.000     0.000     0.000     0.000     0.000     0.000     0.000    41.133     0.000     0.000     5.940    -0.439     0.000     1.019     9.879    36.379     0.000     0.136     0.014   164.998    20.211    19.906     4.642     4.139    62.291     0.201     0.004     0.000     0.000   139.583     0.000     0.000     0.010     0.046     0.000 .00000E+00 .00000E+00 0.232E+01 0.000E+00 0.181E+02 0.000E+00 0.000E+00 0.000E+00 0.000E+00 0.414E+01     7.906   251.151     0.000
GRAS   81 000560001   56    0  1.0.92100E+02  1671.600   428.007   407.383     0.000   688.083   404.377    80.096    80.734   827.458   307.796    15.390    13.762     0.000     0.000   987.421  2006.283   266.968   266.968     0.000   121.584   291.223   688.883    91.470     2.340     6.607    -1.927     4.981    18.198  5487.250  1950.940     0.000     0.000     0.000     0.000     0.000     0.000     0.000     0.000    41.132     0.000     0.000     4.342    -0.325     0.000     0.750    12.309    44.514     0.000     0.136     0.014   111.428    13.644    20.614     8.039     2.216    70.128     0.260     0.005     0.000     0.000   139.583     0.000     0.000     0.010     0.046     0.000 .00000E+00 .00000E+00 0.232E+01 0.000E+00 0.181E+02 0.000E+00 0.000E+00 0.000E+00 0.000E+00 0.222E+01     9.107   121.584     0.000
GRAS   82 000570001   57    0  1.0.28379E+03  1671.600   427.984   407.327     0.000   687.966   459.519   132.210   139.123   721.393   267.494    13.375    13.759     0.000     0.000   987.273  2005.479   162.215   162.216     0.000   252.996   253.086   676.193    88.461     2.340     6.607    -1.927     4.875    18.198  3141.100  2036.051     0.000     0.000     0.000     0.000     0.000     0.000     0.000     0.000    41.131     0.000     0.000     5.940    -0.439     0.000     1.019     9.880    36.379     0.000     0.136     0.014   164.998    20.212    19.906     4.644     4.168    62.198     0.200     0.004     0.000     0.000   139.583     0.000     0.000     0.010     0.046     0.000 .00000E+00 .00000E+00 0.232E+01 0.000E+00 0.181E+02 0.000E+00 0.000E+00 0.000E+00 0.000E+00 0.417E+01     7.895   252.996     0.000
GRAS   83 000580001   58    0  1.0.12635E+03  1671.600   428.033   407.446     0.000   689.672   405.093    80.077    80.746   821.465   305.562    15.278    13.793     0.000     0.000   987.380  2006.238   266.815   266.815     0.000   126.936   289.109   691.901    91.467     2.340     6.607    -1.927     4.981    18.198  5950.830  2075.441     0.000     0.000     0.000     0.000     0.000     0.000     0.000     0.000    41.134     0.000     0.000     4.342    -0.325     0.000     0.749    12.313    44.511     0.000     0.136     0.014   111.428    13.645    20.615     8.031     2.316    69.816     0.257     0.004     0.000     0.000   139.583     0.000     0.000     0.010     0.046     0.000 .00000E+00 .00000E+00 0.232E+01 0.000E+00 0.181E+02 0.000E+00 0.000E+00 0.000E+00 0.000E+00 0.232E+01     9.041   126.936     0.000
GRAS   84 000590001   59    0  1.0.45554E+03  1671.600   427.975   407.308     0.000   688.064   404.108    80.051    80.645   816.951   303.921    15.196    13.761     0.000     0.000   987.407  2006.203   266.682   266.682     0.000   132.607   287.557   695.838    91.465     2.340     6.607    -1.927     4.982    18.198  6314.063  2354.489     0.000     0.000     0.000     0.000     0.000     0.000     0.000     0.000    41.130     0.000     0.000     4.342    -0.325     0.000     0.748    12.315    44.506     0.000     0.136     0.014   111.428    13.646    20.616     8.038     2.419    69.483     0.255     0.004     0.000     0.000   139.583     0.000     0.000     0.010     0.046     0.000 .00000E+00 .00000E+00 0.233E+01 0.000E+00 0.181E+02 0.000E+00 0.000E+00 0.000E+00 0.000E+00 0.242E+01     8.993   132.607     0.000
GRAS   85 000600001   60    0  1.0.21268E+02  1671.600   427.856   407.003     0.000   682.492   455.959   132.165   138.946   707.322   262.328    13.116    13.650     0.000     0.000   987.363  2005.373   162.095   162.095     0.000   270.922   248.199   688.959    88.457     2.340     6.607    -1.927     4.876    18.198  3139.518  2202.485     0.000     0.000     0.000     0.000     0.000     0.000     0.000     0.000    41.123     0.000     0.000     5.941    -0.439     0.000     1.019     9.890    36.391     0.000     0.136     0.014   164.997    20.211    19.905     4.648     4.459    61.266     0.193     0.004     0.000     0.000   139.583     0.000     0.000     0.010     0.046     0.000 .00000E+00 .00000E+00 0.232E+01 0.000E+00 0.181E+02 0.000E+00 0.000E+00 0.000E+00 0.000E+00 0.446E+01     7.743   270.922     0.000
GRAS   86 000610001   61    0  1.0.43515E+02  1671.600   427.949   407.242     0.000   687.052   458.887   132.212   139.063   726.247   269.322    13.466    13.741     0.000     0.000   987.299  2005.518   162.266   162.266     0.000   248.783   254.816   673.814    88.462     2.340     6.607    -1.927     4.876    18.198  2981.928  2024.876     0.000     0.000     0.000     0.000     0.000     0.000     0.000     0.000    41.129     0.000     0.000     5.941    -0.439     0.000     1.019     9.876    36.379     0.000     0.136     0.014   164.997    20.211    19.904     4.648     4.094    62.435     0.202     0.004     0.000     0.000   139.583     0.000     0.000     0.010     0.046     0.000 .00000E+00 .00000E+00 0.232E+01 0.000E+00 0.181E+02 0.000E+00 0.000E+00 0.000E+00 0.000E+00 0.409E+01     7.949   248.783     0.000
GRAS   87 000620001   62    0  1.0.65740E+02  1671.600   427.910   407.139     0.000   685.339   457.652   132.168   139.001   709.246   263.014    13.151    13.707     0.000     0.000   987.308  2005.387   162.099   162.099     0.000   267.247   248.847   685.956    88.457     2.340     6.607    -1.927     4.876    18.198  3514.351  2265.499     0.000     0.000     0.000     0.000     0.000     0.000     0.000     0.000    41.126     0.000     0.000     5.940    -0.439     0.000     1.019     9.889    36.384     0.000     0.136     0.014   164.998    20.212    19.909     4.645     4.403    61.443     0.194     0.004     0.000     0.000   139.583     0.000     0.000     0.010     0.046     0.000 .00000E+00 .00000E+00 0.232E+01 0.000E+00 0.181E+02 0.000E+00 0.000E+00 0.000E+00 0.000E+00 0.440E+01     7.763   267.247     0.000
GRAS   88 000630001   63    0  1.0.46618E+02  1671.600   427.866   407.034     0.000   683.672   456.456   132.127   138.937   694.269   257.461    12.873    13.673     0.000     0.000   987.320  2005.274   161.952   161.952     0.000   283.630   243.594   696.775    88.451     2.340     6.607    -1.927     4.876    18.198  3754.259  2015.121     0.000     0.000     0.000     0.000     0.000     0.000     0.000     0.000    41.124     0.000     0.000     5.939    -0.439     0.000     1.019     9.901    36.392     0.000     0.136     0.014   164.998    20.212    19.910     4.643     4.677    60.560     0.188     0.004     0.000     0.000   139.583     0.000     0.000     0.010     0.046     0.000 .00000E+00 .00000E+00 0.232E+01 0.000E+00 0.181E+02 0.000E+00 0.000E+00 0.000E+00 0.000E+00 0.468E+01     7.599   283.630     0.000
GRAS   89 000640001   64    0  1.0.31590E+03  1671.600   427.938   407.218     0.000   687.346   490.015   202.442   217.652   623.292   226.262    11.313    13.747     0.000     0.000   987.158  2004.716   233.493   233.493     0.000   211.633   214.045   665.768    89.928     2.340     6.607    -1.927     4.460    18.198  7158.707  2919.690     0.000     0.000     0.000     0.000     0.000     0.000     0.000     0.000    41.128     0.000     0.000     2.778    -0.204     0.000     0.477    15.865    51.763     0.000     0.136     0.014    80.000     9.800    20.172     6.523     4.293    63.596     0.175     0.004     0.000     0.000   139.583     0.000     0.000     0.010     0.046     0.000 .00000E+00 .00000E+00 0.233E+01 0.000E+00 0.181E+02 0.000E+00 0.000E+00 0.000E+00 0.000E+00 0.429E+01     6.597   211.633     0.000
GRAS   90 000650001   65    0  1.0.38183E+02  1671.600   427.866   407.034     0.000   683.878   456.584   132.135   138.930   698.439   259.015    12.951    13.678     0.000     0.000   987.322  2005.306   161.993   161.993     0.000   279.298   245.063   693.999    88.453     2.340     6.607    -1.927     4.876    18.198  3551.457  2171.667     0.000     0.000     0.000     0.000     0.000     0.000     0.000     0.000    41.124     0.000     0.000     5.940    -0.439     0.000     1.019     9.897    36.391     0.000     0.136     0.014   164.998    20.212    19.909     4.645     4.603    60.796     0.190     0.004     0.000     0.000   139.583     0.000     0.000     0.010     0.046     0.000 .00000E+00 .00000E+00 0.232E+01 0.000E+00 0.181E+02 0.000E+00 0.000E+00 0.000E+00 0.000E+00 0.460E+01     7.645   279.298     0.000
GRAS   91 000660001   66    0  1.0.71296E+02  1671.600   427.896   407.108     0.000   685.249   457.511   132.164   138.969   709.992   263.299    13.165    13.705     0.000     0.000   987.312  2005.394   162.104   162.104     0.000   266.669   249.117   685.662    88.456     2.340     6.607    -1.927     4.876    18.198  3273.447  2039.233     0.000     0.000     0.000     0.000     0.000     0.000     0.000     0.000    41.125     0.000     0.000     5.940    -0.439     0.000     1.019     9.888    36.386     0.000     0.136     0.014   164.998    20.212    19.907     4.646     4.392    61.476     0.195     0.004     0.000     0.000   139.583     0.000     0.000     0.010     0.046     0.000 .00000E+00 .00000E+00 0.232E+01 0.000E+00 0.181E+02 0.000E+00 0.000E+00 0.000E+00 0.000E+00 0.439E+01     7.771   266.669     0.000
GRAS   92 000670001   67    0  1.0.26423E+03  1671.600   427.911   407.148     0.000   686.263   489.140   202.462   217.609   634.559   230.429    11.521    13.725     0.000     0.000   987.195  2004.803   233.667   233.667     0.000   201.251   217.987   659.624    89.932     2.340     6.607    -1.927     4.461    18.198  7302.280  2787.694     0.000     0.000     0.000     0.000     0.000     0.000     0.000     0.000    41.126     0.000     0.000     2.778    -0.204     0.000     0.477    15.857    51.756     0.000     0.136     0.014    80.000     9.800    20.171     6.527     4.074    64.315     0.180     0.004     0.000     0.000   139.583     0.000     0.000     0.010     0.046     0.000 .00000E+00 .00000E+00 0.233E+01 0.000E+00 0.181E+02 0.000E+00 0.000E+00 0.000E+00 0.000E+00 0.407E+01     6.719   201.251     0.000
GRAS   93 000680001   68    0  1.0.42857E+02  1671.600   427.832   406.957     0.000   683.068   486.565   202.497   217.502   651.573   236.747    11.837    13.661     0.000     0.000   987.284  2004.932   233.968   233.968     0.000   186.816   223.965   651.653    89.939     2.340     6.607    -1.927     4.460    18.198  6440.273  2889.641     0.000     0.000     0.000     0.000     0.000     0.000     0.000     0.000    41.122     0.000     0.000     2.779    -0.204     0.000     0.477    15.845    51.749     0.000     0.136     0.014    79.999     9.800    20.168     6.534     3.766    65.331     0.188     0.004     0.000     0.000   139.583     0.000     0.000     0.010     0.046     0.000 .00000E+00 .00000E+00 0.233E+01 0.000E+00 0.181E+02 0.000E+00 0.000E+00 0.000E+00 0.000E+00 0.377E+01     6.904   186.816     0.000
GRAS   94 000690001   69    0  1.0.37039E+02  1671.600   427.806   406.892     0.000   681.830   485.628   202.533   217.484   662.705   240.855    12.043    13.637     0.000     0.000   987.324  2005.018   234.254   234.254     0.000   176.492   227.852   645.623    89.944     2.340     6.607    -1.927     4.461    18.198  5824.801  2644.441     0.000     0.000     0.000     0.000     0.000     0.000     0.000     0.000    41.120     0.000     0.000     2.779    -0.204     0.000     0.477    15.837    51.745     0.000     0.136     0.014    79.999     9.800    20.165     6.540     3.551    66.032     0.194     0.005     0.000     0.000   139.583     0.000     0.000     0.010     0.046     0.000 .00000E+00 .00000E+00 0.234E+01 0.000E+00 0.181E+02 0.112E+04 0.630E+05 0.000E+00 0.000E+00 0.355E+01     7.025   176.492     0.000
